Compound 1
Actelion Java MolfileCreator 2.0

  0  0  0  0  0  0              0 V3000
M  V30 BEGIN CTAB
M  V30 COUNTS 22 25 0 0 0
M  V30 BEGIN ATOM
M  V30 1 O 0.0 0.0 0.0 0
M  V30 2 C 1.263 0.7698 0.0 0
M  V30 3 C 1.2269 2.3095 0.0 0 CFG=1
M  V30 4 C 2.526 0.036 0.0 0
M  V30 5 C 2.4899 3.0794 0.0 0
M  V30 6 C -0.1082 3.0794 0.0 0
M  V30 7 C 3.7891 0.8059 0.0 0 CFG=1
M  V30 8 C 3.753 2.3576 0.0 0 CFG=1
M  V30 9 C 5.0521 0.0721 0.0 0
M  V30 10 C 5.016 3.1275 0.0 0 CFG=2
M  V30 11 C 3.7169 3.8973 0.0 0
M  V30 12 C 6.3152 0.842 0.0 0
M  V30 13 C 6.2791 2.4057 0.0 0 CFG=1
M  V30 14 C 4.9799 4.6672 0.0 0
M  V30 15 C 7.5421 3.1756 0.0 0 CFG=1
M  V30 16 C 6.243 5.437 0.0 0
M  V30 17 C 7.506 4.7153 0.0 0 CFG=2
M  V30 18 C 8.9375 2.7426 0.0 0
M  V30 19 C 8.9014 5.2205 0.0 0 CFG=2
M  V30 20 C 7.4699 6.255 0.0 0
M  V30 21 C 9.7795 3.9936 0.0 0
M  V30 22 O 8.8653 6.7602 0.0 0
M  V30 END ATOM
M  V30 BEGIN BOND
M  V30 1 2 1 2
M  V30 2 1 2 3
M  V30 3 1 2 4
M  V30 4 1 3 5
M  V30 5 1 3 6 CFG=3
M  V30 6 1 7 4 CFG=1
M  V30 7 1 5 8
M  V30 8 1 7 9
M  V30 9 1 8 10
M  V30 10 1 8 11 CFG=1
M  V30 11 1 9 12
M  V30 12 1 10 13
M  V30 13 1 10 14 CFG=1
M  V30 14 1 13 15
M  V30 15 1 14 16
M  V30 16 1 15 17
M  V30 17 1 15 18 CFG=1
M  V30 18 1 17 19
M  V30 19 1 17 20 CFG=1
M  V30 20 1 18 21
M  V30 21 1 19 22 CFG=1
M  V30 22 1 7 8
M  V30 23 1 13 12 CFG=3
M  V30 24 1 16 17
M  V30 25 1 19 21
M  V30 END BOND
M  V30 BEGIN COLLECTION
M  V30 MDLV30/STEABS ATOMS=(8 3 7 8 10 13 15 17 19)
M  V30 END COLLECTION
M  V30 END CTAB
M  END
>  <SMILES>
[H][C@@]12CC[C@H](O)[C@@]1(C)CC[C@@]1([H])[C@@]2([H])CC[C@@]2([H])CC(=O)[C@H](C)C[C@]12C

>  <INCHI_IDENTIFIER>
InChI=1S/C20H32O2/c1-12-11-20(3)13(10-17(12)21)4-5-14-15-6-7-18(22)19(15,2)9-8-16(14)20/h12-16,18,22H,4-11H2,1-3H3/t12-,13+,14+,15+,16+,18+,19+,20+/m1/s1

>  <INCHI_KEY>
IKXILDNPCZPPRV-RFMGOVQKSA-N

>  <FORMULA>
C20H32O2

>  <MOLECULAR_WEIGHT>
304.4669

>  <DRUGBANK_ID>
DB00858

>  <DRUG_GROUPS>
illicit

>  <GENERIC_NAME>
Drostanolone

>  <SYNONYMS>
17beta-Hydroxy-2alpha-methyl-5alpha-androstan-3-one; 2α-Methyldihydrotestosterone; Dihydro-2α-methyltestosterone; Dromostanolone; Drostanolona; Drostanolone; Drostanolonum; Medrosteron; Medrotestron; Metholone

$$$$
Compound 2
Actelion Java MolfileCreator 2.0

  0  0  0  0  0  0              0 V3000
M  V30 BEGIN CTAB
M  V30 COUNTS 15 15 0 0 0
M  V30 BEGIN ATOM
M  V30 1 O 0.0 0.0 0.0 0
M  V30 2 C -1.328 -0.7298 0.0 0
M  V30 3 N -2.656 0.0478 0.0 0
M  V30 4 N -1.3639 -2.1894 0.0 0
M  V30 5 C -3.9841 -0.67 0.0 0
M  V30 6 C -2.6919 -2.9193 0.0 0
M  V30 7 O -5.3121 0.1076 0.0 0
M  V30 8 C -4.02 -2.1296 0.0 0
M  V30 9 O -2.7278 -4.3789 0.0 0
M  V30 10 C -5.5514 -2.0937 0.0 0
M  V30 11 C -4.7977 -3.3859 0.0 0
M  V30 12 C -6.3291 -3.35 0.0 0
M  V30 13 C -6.3291 -0.7657 0.0 0
M  V30 14 C -4.0678 -4.6421 0.0 0
M  V30 15 C -4.8455 -5.8984 0.0 0
M  V30 END ATOM
M  V30 BEGIN BOND
M  V30 1 2 1 2
M  V30 2 1 2 3
M  V30 3 1 2 4
M  V30 4 1 3 5
M  V30 5 1 4 6
M  V30 6 2 5 7
M  V30 7 1 5 8
M  V30 8 2 6 9
M  V30 9 1 8 10
M  V30 10 1 8 11
M  V30 11 1 10 12
M  V30 12 1 10 13
M  V30 13 1 11 14
M  V30 14 2 14 15
M  V30 15 1 6 8
M  V30 END BOND
M  V30 END CTAB
M  END
>  <SMILES>
CC(C)C1(CC=C)C(=O)NC(=O)NC1=O

>  <INCHI_IDENTIFIER>
InChI=1S/C10H14N2O3/c1-4-5-10(6(2)3)7(13)11-9(15)12-8(10)14/h4,6H,1,5H2,2-3H3,(H2,11,12,13,14,15)

>  <INCHI_KEY>
UORJNBVJVRLXMQ-UHFFFAOYSA-N

>  <FORMULA>
C10H14N2O3

>  <MOLECULAR_WEIGHT>
210.2298

>  <DRUGBANK_ID>
DB01352

>  <DRUG_GROUPS>
experimental; illicit

>  <GENERIC_NAME>
Aprobarbital

>  <SYNONYMS>
5-(1-methylethyl)-5-(2-propenyl)-2,4,6(1H,3H,5H)-pyrimidinetrione; 5-allyl-5-isopropylbarbituric acid; 5-allyl-5-isopropylpyrimidine-2,4,6(1H,3H,5H)-trione; 5-isopropyl-5-allylbarbituric acid; Allypropymal; Aprobarbital; Aprobarbitale; Aprobarbitalum

$$$$
Compound 3
Actelion Java MolfileCreator 2.0

  0  0  0  0  0  0              0 V3000
M  V30 BEGIN CTAB
M  V30 COUNTS 26 27 0 0 0
M  V30 BEGIN ATOM
M  V30 1 O 0.0 0.0 0.0 0
M  V30 2 C -0.7781 -1.2569 0.0 0
M  V30 3 O -2.3104 -1.221 0.0 0
M  V30 4 C -0.0598 -2.5139 0.0 0
M  V30 5 C -3.0765 0.1077 0.0 0
M  V30 6 C -4.6089 0.1436 0.0 0
M  V30 7 C -2.3583 1.4365 0.0 0
M  V30 8 C -4.6448 1.6759 0.0 0
M  V30 9 C -4.6448 -1.3168 0.0 0
M  V30 10 C -6.1412 0.1795 0.0 0
M  V30 11 C -0.8978 1.4724 0.0 0
M  V30 12 C -5.9736 2.4421 0.0 0
M  V30 13 C -3.3878 2.4421 0.0 0
M  V30 14 C -3.3878 -2.0351 0.0 0
M  V30 15 C -5.9736 -2.0351 0.0 0
M  V30 16 C -7.5777 0.7302 0.0 0
M  V30 17 C -6.0095 3.9744 0.0 0
M  V30 18 C -3.4237 3.9744 0.0 0
M  V30 19 C -3.4237 -3.4955 0.0 0
M  V30 20 C -6.0095 -3.4955 0.0 0
M  V30 21 N -8.7509 -0.1915 0.0 0
M  V30 22 C -7.877 2.2386 0.0 0
M  V30 23 C -4.7525 4.7405 0.0 0
M  V30 24 C -4.7525 -4.2138 0.0 0
M  V30 25 C -10.1874 0.3591 0.0 0
M  V30 26 C -8.5234 -1.628 0.0 0
M  V30 END ATOM
M  V30 BEGIN BOND
M  V30 1 2 1 2
M  V30 2 1 2 3
M  V30 3 1 2 4
M  V30 4 1 3 5
M  V30 5 1 5 6
M  V30 6 1 5 7
M  V30 7 1 6 8
M  V30 8 1 6 9
M  V30 9 1 6 10
M  V30 10 1 7 11
M  V30 11 2 8 12
M  V30 12 1 8 13
M  V30 13 2 9 14
M  V30 14 1 9 15
M  V30 15 1 10 16
M  V30 16 1 12 17
M  V30 17 2 13 18
M  V30 18 1 14 19
M  V30 19 2 15 20
M  V30 20 1 16 21
M  V30 21 1 16 22
M  V30 22 2 17 23
M  V30 23 2 19 24
M  V30 24 1 21 25
M  V30 25 1 21 26
M  V30 26 1 18 23
M  V30 27 1 20 24
M  V30 END BOND
M  V30 END CTAB
M  END
>  <SMILES>
CCC(OC(C)=O)C(CC(C)N(C)C)(C1=CC=CC=C1)C1=CC=CC=C1

>  <INCHI_IDENTIFIER>
InChI=1S/C23H31NO2/c1-6-22(26-19(3)25)23(17-18(2)24(4)5,20-13-9-7-10-14-20)21-15-11-8-12-16-21/h7-16,18,22H,6,17H2,1-5H3

>  <INCHI_KEY>
XBMIVRRWGCYBTQ-UHFFFAOYSA-N

>  <FORMULA>
C23H31NO2

>  <MOLECULAR_WEIGHT>
353.4977

>  <DRUGBANK_ID>
DB01433

>  <DRUG_GROUPS>
experimental; illicit

>  <GENERIC_NAME>
Methadyl acetate

>  <SYNONYMS>
Acetilmetadol; Acetylmethadol; Acetylmethadolum

$$$$
Compound 4
Actelion Java MolfileCreator 2.0

  0  0  0  0  0  0              0 V3000
M  V30 BEGIN CTAB
M  V30 COUNTS 20 23 0 0 0
M  V30 BEGIN ATOM
M  V30 1 O 0.0 0.0 0.0 0
M  V30 2 C 1.1964 0.7649 0.0 0
M  V30 3 C 2.4124 0.098 0.0 0
M  V30 4 C 1.1375 2.3143 0.0 0
M  V30 5 C 3.5892 0.8826 0.0 0
M  V30 6 C 2.3536 3.0989 0.0 0
M  V30 7 C 3.5304 2.432 0.0 0 CFG=2
M  V30 8 C 4.766 0.2157 0.0 0
M  V30 9 C 4.766 3.1969 0.0 0 CFG=2
M  V30 10 C 5.9624 0.9806 0.0 0
M  V30 11 C 5.9428 2.5301 0.0 0 CFG=1
M  V30 12 C 4.7268 4.7268 0.0 0
M  V30 13 C 7.1196 3.295 0.0 0 CFG=1
M  V30 14 C 5.9232 5.4917 0.0 0
M  V30 15 C 7.0804 4.8445 0.0 0 CFG=2
M  V30 16 C 9.5909 3.3342 0.0 0
M  V30 17 C 8.2572 5.6094 0.0 0
M  V30 18 C 7.0215 6.3743 0.0 0
M  V30 19 C 9.5517 4.8641 0.0 0
M  V30 20 O 8.1983 7.1981 0.0 0
M  V30 END ATOM
M  V30 BEGIN BOND
M  V30 1 2 1 2
M  V30 2 1 2 3
M  V30 3 1 2 4
M  V30 4 2 3 5
M  V30 5 1 4 6
M  V30 6 1 5 7
M  V30 7 1 5 8
M  V30 8 1 7 9
M  V30 9 1 8 10
M  V30 10 1 9 11
M  V30 11 1 9 12 CFG=1
M  V30 12 1 11 13
M  V30 13 1 12 14
M  V30 14 1 13 15
M  V30 15 1 13 16 CFG=1
M  V30 16 1 15 17
M  V30 17 1 15 18 CFG=1
M  V30 18 1 16 19
M  V30 19 2 17 20
M  V30 20 1 7 6 CFG=3
M  V30 21 1 11 10 CFG=3
M  V30 22 1 14 15
M  V30 23 1 17 19
M  V30 END BOND
M  V30 BEGIN COLLECTION
M  V30 MDLV30/STEABS ATOMS=(5 7 9 11 13 15)
M  V30 END COLLECTION
M  V30 END CTAB
M  END
>  <SMILES>
[H][C@@]12CCC(=O)[C@@]1(C)CC[C@]1([H])[C@@]3([H])CCC(=O)C=C3CC[C@@]21[H]

>  <INCHI_IDENTIFIER>
InChI=1S/C18H24O2/c1-18-9-8-14-13-5-3-12(19)10-11(13)2-4-15(14)16(18)6-7-17(18)20/h10,13-16H,2-9H2,1H3/t13-,14+,15+,16-,18-/m0/s1

>  <INCHI_KEY>
JRIZOGLBRPZBLQ-QXUSFIETSA-N

>  <FORMULA>
C18H24O2

>  <MOLECULAR_WEIGHT>
272.382

>  <DRUGBANK_ID>
DB01434

>  <DRUG_GROUPS>
experimental; illicit

>  <GENERIC_NAME>
19-norandrostenedione

>  <SYNONYMS>
delta,4-Estrene-3,17-dione; delta4-Estrene-3,17-dione

$$$$
Compound 5
Actelion Java MolfileCreator 2.0

  0  0  0  0  0  0              0 V3000
M  V30 BEGIN CTAB
M  V30 COUNTS 25 27 0 0 0
M  V30 BEGIN ATOM
M  V30 1 S 0.0 0.0 0.0 0
M  V30 2 C 1.1721 0.9089 0.0 0
M  V30 3 C 0.4305 -1.3873 0.0 0
M  V30 4 C 2.3442 0.0717 0.0 0
M  V30 5 C 1.1362 2.4398 0.0 0
M  V30 6 C 1.8897 -1.3515 0.0 0
M  V30 7 C 2.392 3.2053 0.0 0
M  V30 8 N 2.3561 4.7362 0.0 0
M  V30 9 C 1.0285 5.5136 0.0 0
M  V30 10 C 3.6119 5.5136 0.0 0
M  V30 11 C 0.9927 7.0445 0.0 0
M  V30 12 C 3.5761 7.0445 0.0 0
M  V30 13 C 2.2485 7.81 0.0 0
M  V30 14 C -0.3348 7.81 0.0 0
M  V30 15 N 2.2126 9.3409 0.0 0
M  V30 16 C 3.4684 10.1064 0.0 0
M  V30 17 C 0.885 10.1064 0.0 0
M  V30 18 C 3.4325 11.6373 0.0 0
M  V30 19 C 4.7243 9.3888 0.0 0
M  V30 20 O -0.4425 9.3888 0.0 0
M  V30 21 C 0.8491 11.6373 0.0 0
M  V30 22 C 4.6884 12.4147 0.0 0
M  V30 23 C 5.9801 10.1662 0.0 0
M  V30 24 C -0.4784 12.4147 0.0 0
M  V30 25 C 5.9442 11.6971 0.0 0
M  V30 END ATOM
M  V30 BEGIN BOND
M  V30 1 1 1 2
M  V30 2 1 1 3
M  V30 3 2 2 4
M  V30 4 1 2 5
M  V30 5 2 3 6
M  V30 6 1 5 7
M  V30 7 1 7 8
M  V30 8 1 8 9
M  V30 9 1 8 10
M  V30 10 1 9 11
M  V30 11 1 10 12
M  V30 12 1 11 13
M  V30 13 1 11 14
M  V30 14 1 13 15
M  V30 15 1 15 16
M  V30 16 1 15 17
M  V30 17 2 16 18
M  V30 18 1 16 19
M  V30 19 2 17 20
M  V30 20 1 17 21
M  V30 21 1 18 22
M  V30 22 2 19 23
M  V30 23 1 21 24
M  V30 24 2 22 25
M  V30 25 1 4 6
M  V30 26 1 12 13
M  V30 27 1 23 25
M  V30 END BOND
M  V30 END CTAB
M  END
>  <SMILES>
CCC(=O)N(C1CCN(CCC2=CC=CS2)CC1C)C1=CC=CC=C1

>  <INCHI_IDENTIFIER>
InChI=1S/C21H28N2OS/c1-3-21(24)23(18-8-5-4-6-9-18)20-12-14-22(16-17(20)2)13-11-19-10-7-15-25-19/h4-10,15,17,20H,3,11-14,16H2,1-2H3

>  <INCHI_KEY>
SRARDYUHGVMEQI-UHFFFAOYSA-N

>  <FORMULA>
C21H28N2OS

>  <MOLECULAR_WEIGHT>
356.525

>  <DRUGBANK_ID>
DB01439

>  <DRUG_GROUPS>
experimental; illicit

>  <GENERIC_NAME>
3-Methylthiofentanyl

>  <SYNONYMS>
3-Methyl-thiofentanyl

$$$$
Compound 6
Actelion Java MolfileCreator 2.0

  0  0  0  0  0  0              0 V3000
M  V30 BEGIN CTAB
M  V30 COUNTS 20 21 0 0 0
M  V30 BEGIN ATOM
M  V30 1 O 0.0 0.0 0.0 0
M  V30 2 C 1.2765 -0.721 0.0 0
M  V30 3 C -1.3475 -0.721 0.0 0
M  V30 4 C 2.5531 0.0709 0.0 0
M  V30 5 C 1.2411 -2.1985 0.0 0
M  V30 6 C 3.8297 -0.6501 0.0 0
M  V30 7 C 2.5177 -2.9314 0.0 0
M  V30 8 C 3.7943 -2.1276 0.0 0
M  V30 9 C 5.2245 -0.1536 0.0 0
M  V30 10 N 5.1891 -2.5531 0.0 0
M  V30 11 C 6.0756 -1.3357 0.0 0
M  V30 12 C 5.6501 1.3238 0.0 0
M  V30 13 C 7.0922 1.6666 0.0 0
M  V30 14 N 7.5177 3.1442 0.0 0
M  V30 15 C 6.4657 4.3144 0.0 0
M  V30 16 C 8.9598 3.487 0.0 0
M  V30 17 C 4.9527 4.0425 0.0 0
M  V30 18 C 6.8912 5.7919 0.0 0
M  V30 19 C 9.9409 2.3877 0.0 0
M  V30 20 C 9.3853 4.9645 0.0 0
M  V30 END ATOM
M  V30 BEGIN BOND
M  V30 1 1 1 2
M  V30 2 1 1 3
M  V30 3 2 2 4
M  V30 4 1 2 5
M  V30 5 1 4 6
M  V30 6 2 5 7
M  V30 7 2 6 8
M  V30 8 1 6 9
M  V30 9 1 8 10
M  V30 10 2 9 11
M  V30 11 1 9 12
M  V30 12 1 12 13
M  V30 13 1 13 14
M  V30 14 1 14 15
M  V30 15 1 14 16
M  V30 16 1 15 17
M  V30 17 1 15 18
M  V30 18 1 16 19
M  V30 19 1 16 20
M  V30 20 1 7 8
M  V30 21 1 10 11
M  V30 END BOND
M  V30 END CTAB
M  END
>  <SMILES>
COC1=CC2=C(NC=C2CCN(C(C)C)C(C)C)C=C1

>  <INCHI_IDENTIFIER>
InChI=1S/C17H26N2O/c1-12(2)19(13(3)4)9-8-14-11-18-17-7-6-15(20-5)10-16(14)17/h6-7,10-13,18H,8-9H2,1-5H3

>  <INCHI_KEY>
DNBPMBJFRRVTSJ-UHFFFAOYSA-N

>  <FORMULA>
C17H26N2O

>  <MOLECULAR_WEIGHT>
274.4011

>  <DRUGBANK_ID>
DB01441

>  <DRUG_GROUPS>
experimental; illicit

>  <GENERIC_NAME>
5-Methoxy-N,N-diisopropyltryptamine

>  <SYNONYMS>
5-MeO-DIPT; 5-methoxy-N,N-bis(1-methylethyl)-1H-indole-3-ethanamine; Foxy; Foxy methoxy; N-(1-methylethyl)-N-{2-[5-(methyloxy)-1H-indol-3-yl]ethyl}propan-2-amine

$$$$
Compound 7
Actelion Java MolfileCreator 2.0

  0  0  0  0  0  0              0 V3000
M  V30 BEGIN CTAB
M  V30 COUNTS 15 16 0 0 0
M  V30 BEGIN ATOM
M  V30 1 O 0.0 0.0 0.0 0
M  V30 2 C -1.4443 -0.4297 0.0 0
M  V30 3 C 0.8236 -1.1578 0.0 0
M  V30 4 C -2.7692 0.3461 0.0 0
M  V30 5 C -1.4801 -1.8859 0.0 0
M  V30 6 O -0.0716 -2.3157 0.0 0
M  V30 7 O -2.8051 1.874 0.0 0
M  V30 8 C -4.0942 -0.3819 0.0 0
M  V30 9 C -2.8051 -2.6021 0.0 0
M  V30 10 C -4.13 2.6499 0.0 0
M  V30 11 C -4.13 -1.8382 0.0 0
M  V30 12 C -5.455 -2.5544 0.0 0
M  V30 13 C -6.7799 -1.7785 0.0 0 CFG=1
M  V30 14 N -8.1049 -2.4947 0.0 0
M  V30 15 C -6.8158 -0.2506 0.0 0
M  V30 END ATOM
M  V30 BEGIN BOND
M  V30 1 1 1 2
M  V30 2 1 1 3
M  V30 3 2 2 4
M  V30 4 1 2 5
M  V30 5 1 3 6
M  V30 6 1 4 7
M  V30 7 1 4 8
M  V30 8 2 5 9
M  V30 9 1 7 10
M  V30 10 2 8 11
M  V30 11 1 11 12
M  V30 12 1 12 13
M  V30 13 1 13 14 CFG=1
M  V30 14 1 13 15
M  V30 15 1 5 6
M  V30 16 1 9 11
M  V30 END BOND
M  V30 BEGIN COLLECTION
M  V30 MDLV30/STERAC1 ATOMS=(1 13)
M  V30 END COLLECTION
M  V30 END CTAB
M  END
>  <SMILES>
COC1=CC(CC(C)N)=CC2=C1OCO2

>  <INCHI_IDENTIFIER>
InChI=1S/C11H15NO3/c1-7(12)3-8-4-9(13-2)11-10(5-8)14-6-15-11/h4-5,7H,3,6,12H2,1-2H3

>  <INCHI_KEY>
YQYUWUKDEVZFDB-UHFFFAOYSA-N

>  <FORMULA>
C11H15NO3

>  <MOLECULAR_WEIGHT>
209.2417

>  <DRUGBANK_ID>
DB01442

>  <DRUG_GROUPS>
experimental; illicit

>  <GENERIC_NAME>
MMDA

>  <SYNONYMS>
(+-)-MMDA; 3-Methoxy-4,5-methylenedioxyphenylisopropylamine; 3-Methoxy-alpha-methyl-4,5-methylenedioxyphenethylamine; 3-methoxy-methylenedioxyamphetamine; 5-Methoxy-3,4-methylenedioxyamphetamine

$$$$
Compound 8
Actelion Java MolfileCreator 2.0

  0  0  0  0  0  0              0 V3000
M  V30 BEGIN CTAB
M  V30 COUNTS 20 23 0 0 0
M  V30 BEGIN ATOM
M  V30 1 O 0.0 0.0 0.0 0
M  V30 2 C -1.337 -0.6976 0.0 0
M  V30 3 C -2.6625 0.093 0.0 0
M  V30 4 C -1.3719 -2.1509 0.0 0
M  V30 5 C -3.9996 -0.6045 0.0 0
M  V30 6 C -2.6974 -2.8485 0.0 0
M  V30 7 C -5.325 0.1744 0.0 0
M  V30 8 C -4.0345 -2.0579 0.0 0 CFG=2
M  V30 9 C -6.6621 -0.5232 0.0 0
M  V30 10 C -5.3599 -2.7555 0.0 0 CFG=2
M  V30 11 C -6.697 -1.9765 0.0 0 CFG=2
M  V30 12 C -5.3948 -4.2205 0.0 0
M  V30 13 C -8.0224 -2.6741 0.0 0 CFG=1
M  V30 14 C -6.7319 -4.9181 0.0 0
M  V30 15 C -8.0573 -4.1391 0.0 0 CFG=2
M  V30 16 C -9.4874 -2.1974 0.0 0
M  V30 17 C -9.5223 -4.5577 0.0 0
M  V30 18 C -8.3596 -5.5692 0.0 0
M  V30 19 C -10.4059 -3.3717 0.0 0
M  V30 20 O -10.0106 -5.9412 0.0 0
M  V30 END ATOM
M  V30 BEGIN BOND
M  V30 1 2 1 2
M  V30 2 1 2 3
M  V30 3 1 2 4
M  V30 4 1 3 5
M  V30 5 1 4 6
M  V30 6 2 5 7
M  V30 7 1 5 8
M  V30 8 1 7 9
M  V30 9 1 8 10
M  V30 10 1 11 9 CFG=3
M  V30 11 1 10 12 CFG=1
M  V30 12 1 11 13
M  V30 13 1 12 14
M  V30 14 1 13 15
M  V30 15 1 13 16 CFG=1
M  V30 16 1 15 17
M  V30 17 1 15 18 CFG=1
M  V30 18 1 16 19
M  V30 19 2 17 20
M  V30 20 1 8 6 CFG=3
M  V30 21 1 10 11
M  V30 22 1 14 15
M  V30 23 1 17 19
M  V30 END BOND
M  V30 BEGIN COLLECTION
M  V30 MDLV30/STERAC1 ATOMS=(5 8 10 11 13 15)
M  V30 END COLLECTION
M  V30 END CTAB
M  END
>  <SMILES>
[H][C@@]12CCC(=O)[C@@]1(C)CC[C@]1([H])[C@@]3([H])CCC(=O)CC3=CC[C@@]21[H]

>  <INCHI_IDENTIFIER>
InChI=1S/C18H24O2/c1-18-9-8-14-13-5-3-12(19)10-11(13)2-4-15(14)16(18)6-7-17(18)20/h2,13-16H,3-10H2,1H3/t13-,14+,15+,16-,18-/m0/s1

>  <INCHI_KEY>
WELNRNVZXWUOGT-QXUSFIETSA-N

>  <FORMULA>
C18H24O2

>  <MOLECULAR_WEIGHT>
272.388

>  <DRUGBANK_ID>
DB01443

>  <DRUG_GROUPS>
experimental; illicit

>  <GENERIC_NAME>
19-Nor-5-androstenedione

>  <SYNONYMS>
estr-5-ene-3,17-dione

$$$$
Compound 9
Actelion Java MolfileCreator 2.0

  0  0  0  0  0  0              0 V3000
M  V30 BEGIN CTAB
M  V30 COUNTS 17 18 0 0 0
M  V30 BEGIN ATOM
M  V30 1 S 0.0 0.0 0.0 0
M  V30 2 C -1.3986 0.6574 0.0 0
M  V30 3 C 0.9563 1.1356 0.0 0
M  V30 4 C -2.7255 -0.0597 0.0 0
M  V30 5 C -1.279 2.1756 0.0 0
M  V30 6 C 0.1912 2.4625 0.0 0
M  V30 7 C -2.7614 -1.5181 0.0 0
M  V30 8 C -4.0524 0.7052 0.0 0
M  V30 9 S -4.0046 -2.3549 0.0 0
M  V30 10 C -1.5898 -2.3549 0.0 0
M  V30 11 C -4.0883 2.2354 0.0 0 CFG=1
M  V30 12 C -3.5742 -3.7416 0.0 0
M  V30 13 C -2.0919 -3.7416 0.0 0
M  V30 14 N -5.4152 3.0004 0.0 0
M  V30 15 C -2.8331 3.0004 0.0 0
M  V30 16 C -5.451 4.5306 0.0 0
M  V30 17 C -6.7421 2.2832 0.0 0
M  V30 END ATOM
M  V30 BEGIN BOND
M  V30 1 1 1 2
M  V30 2 1 1 3
M  V30 3 1 2 4
M  V30 4 2 2 5
M  V30 5 2 3 6
M  V30 6 1 4 7
M  V30 7 2 4 8
M  V30 8 1 7 9
M  V30 9 2 7 10
M  V30 10 1 8 11
M  V30 11 1 9 12
M  V30 12 1 10 13
M  V30 13 1 11 14 CFG=1
M  V30 14 1 11 15
M  V30 15 1 14 16
M  V30 16 1 14 17
M  V30 17 1 5 6
M  V30 18 2 12 13
M  V30 END BOND
M  V30 BEGIN COLLECTION
M  V30 MDLV30/STERAC1 ATOMS=(1 11)
M  V30 END COLLECTION
M  V30 END CTAB
M  END
>  <SMILES>
CC(C=C(C1=CC=CS1)C1=CC=CS1)N(C)C

>  <INCHI_IDENTIFIER>
InChI=1S/C14H17NS2/c1-11(15(2)3)10-12(13-6-4-8-16-13)14-7-5-9-17-14/h4-11H,1-3H3

>  <INCHI_KEY>
CANBGVXYBPOLRR-UHFFFAOYSA-N

>  <FORMULA>
C14H17NS2

>  <MOLECULAR_WEIGHT>
263.421

>  <DRUGBANK_ID>
DB01444

>  <DRUG_GROUPS>
experimental; illicit

>  <GENERIC_NAME>
Dimethylthiambutene

>  <SYNONYMS>
3-dimethylamino-1,1-bis(2-thienyl)-1-butene; 3-dimethylamino-1,1-di-(2'-thienyl)-1-butene; Dimethibutin; Dimethylthiambutene; Dimethylthiambutenum; Dimetiltiambutene; Dimetiltiambuteno; N,N-dimethyl-4,4-di(2-thienyl)-3-buten-2-amine; N,N,1-trimethyl-3,3-di-2-thienylallylamine; N,N,1-trimethyl-3,3-di(2-thienyl)-2-propenylamine; Ohton

$$$$
Compound 10
Actelion Java MolfileCreator 2.0

  0  0  0  0  0  0              0 V3000
M  V30 BEGIN CTAB
M  V30 COUNTS 15 16 0 0 0
M  V30 BEGIN ATOM
M  V30 1 O 0.0 0.0 0.0 0
M  V30 2 C 1.2856 -0.7077 0.0 0
M  V30 3 C 2.5713 0.0825 0.0 0
M  V30 4 C 1.2502 -2.1938 0.0 0
M  V30 5 C 3.8569 -0.6251 0.0 0
M  V30 6 C 2.5359 -2.9133 0.0 0
M  V30 7 C 3.8215 -2.1113 0.0 0
M  V30 8 C 5.2605 -0.1297 0.0 0
M  V30 9 N 5.2252 -2.5359 0.0 0
M  V30 10 C 6.1216 -1.321 0.0 0
M  V30 11 C 5.6852 1.3564 0.0 0
M  V30 12 C 7.136 1.6984 0.0 0
M  V30 13 N 7.5606 3.1846 0.0 0
M  V30 14 C 9.0114 3.5267 0.0 0
M  V30 15 C 6.499 4.3641 0.0 0
M  V30 END ATOM
M  V30 BEGIN BOND
M  V30 1 1 1 2
M  V30 2 2 2 3
M  V30 3 1 2 4
M  V30 4 1 3 5
M  V30 5 2 4 6
M  V30 6 2 5 7
M  V30 7 1 5 8
M  V30 8 1 7 9
M  V30 9 2 8 10
M  V30 10 1 8 11
M  V30 11 1 11 12
M  V30 12 1 12 13
M  V30 13 1 13 14
M  V30 14 1 13 15
M  V30 15 1 6 7
M  V30 16 1 9 10
M  V30 END BOND
M  V30 END CTAB
M  END
>  <SMILES>
CN(C)CCC1=CNC2=C1C=C(O)C=C2

>  <INCHI_IDENTIFIER>
InChI=1S/C12H16N2O/c1-14(2)6-5-9-8-13-12-4-3-10(15)7-11(9)12/h3-4,7-8,13,15H,5-6H2,1-2H3

>  <INCHI_KEY>
VTTONGPRPXSUTJ-UHFFFAOYSA-N

>  <FORMULA>
C12H16N2O

>  <MOLECULAR_WEIGHT>
204.2682

>  <DRUGBANK_ID>
DB01445

>  <DRUG_GROUPS>
experimental; illicit

>  <GENERIC_NAME>
Bufotenine

>  <SYNONYMS>
3-[2-(dimethylamino)ethyl]-5-indolol; 3-[2-(dimethylamino)ethyl]indol-5-ol; 3-[β-(dimethylamino)ethyl]-5-hydroxyindole; 5-hydroxy-N,N-dimethyltryptamine; Bufotenin; DM5-HT; N,N-dimethylserotonin

$$$$
Compound 11
Actelion Java MolfileCreator 2.0

  0  0  0  0  0  0              0 V3000
M  V30 BEGIN CTAB
M  V30 COUNTS 13 14 0 0 0
M  V30 BEGIN ATOM
M  V30 1 N 0.0 0.0 0.0 0
M  V30 2 C -1.4382 0.4992 0.0 0
M  V30 3 C 0.8201 1.2242 0.0 0
M  V30 4 C -1.4738 2.0206 0.0 0
M  V30 5 C -2.7575 -0.2258 0.0 0
M  V30 6 C -0.0713 2.4485 0.0 0
M  V30 7 C -2.7932 2.7932 0.0 0
M  V30 8 C -4.0768 0.5467 0.0 0
M  V30 9 C 0.3565 3.8986 0.0 0
M  V30 10 C -4.1125 2.0681 0.0 0
M  V30 11 C 1.771 4.2432 0.0 0 CFG=1
M  V30 12 N 2.1989 5.6933 0.0 0
M  V30 13 C 2.7218 3.1735 0.0 0
M  V30 END ATOM
M  V30 BEGIN BOND
M  V30 1 1 1 2
M  V30 2 1 1 3
M  V30 3 2 2 4
M  V30 4 1 2 5
M  V30 5 2 3 6
M  V30 6 1 4 7
M  V30 7 2 5 8
M  V30 8 1 6 9
M  V30 9 2 7 10
M  V30 10 1 9 11
M  V30 11 1 11 12 CFG=1
M  V30 12 1 11 13
M  V30 13 1 4 6
M  V30 14 1 8 10
M  V30 END BOND
M  V30 BEGIN COLLECTION
M  V30 MDLV30/STERAC1 ATOMS=(1 11)
M  V30 END COLLECTION
M  V30 END CTAB
M  END
>  <SMILES>
CC(N)CC1=CNC2=CC=CC=C12

>  <INCHI_IDENTIFIER>
InChI=1S/C11H14N2/c1-8(12)6-9-7-13-11-5-3-2-4-10(9)11/h2-5,7-8,13H,6,12H2,1H3

>  <INCHI_KEY>
QSQQQURBVYWZKJ-UHFFFAOYSA-N

>  <FORMULA>
C11H14N2

>  <MOLECULAR_WEIGHT>
174.2423

>  <DRUGBANK_ID>
DB01446

>  <DRUG_GROUPS>
experimental; illicit

>  <GENERIC_NAME>
Indopan

>  <SYNONYMS>
1-(1H-Indol-3-yl)-2-propanamine; 3-(2-Aminopropyl)indole; alpha-Methyl-1H-indole-3-ethanamine; alpha-Methyl-beta-indoleethylamine; alpha-methyltryptamine; AMT; DL-3-(2-Aminopropyl)indole; Indopan; α-Methyl-3-indoleethanamine; α-methyltryptamine; αMT

$$$$
Compound 12
Actelion Java MolfileCreator 2.0

  0  0  0  0  0  0              0 V3000
M  V30 BEGIN CTAB
M  V30 COUNTS 13 14 0 0 0
M  V30 BEGIN ATOM
M  V30 1 O 0.0 0.0 0.0 0
M  V30 2 C 0.4226 1.4792 0.0 0
M  V30 3 C 1.1974 -0.8687 0.0 0
M  V30 4 N 1.9018 1.5144 0.0 0
M  V30 5 N -0.5165 2.7471 0.0 0
M  V30 6 C 1.1622 -2.3479 0.0 0
M  V30 7 C 2.3949 0.0704 0.0 0
M  V30 8 C 2.4419 -3.0523 0.0 0
M  V30 9 C -0.1878 -3.0523 0.0 0
M  V30 10 C 3.8037 -0.3521 0.0 0
M  V30 11 C 2.4066 -4.5316 0.0 0
M  V30 12 C -0.223 -4.5316 0.0 0
M  V30 13 C 1.0565 -5.236 0.0 0
M  V30 END ATOM
M  V30 BEGIN BOND
M  V30 1 1 1 2
M  V30 2 1 1 3
M  V30 3 2 2 4
M  V30 4 1 2 5
M  V30 5 1 3 6
M  V30 6 1 3 7
M  V30 7 2 6 8
M  V30 8 1 6 9
M  V30 9 1 7 10
M  V30 10 1 8 11
M  V30 11 2 9 12
M  V30 12 2 11 13
M  V30 13 1 4 7
M  V30 14 1 12 13
M  V30 END BOND
M  V30 END CTAB
M  END
>  <SMILES>
CC1N=C(N)OC1C1=CC=CC=C1

>  <INCHI_IDENTIFIER>
InChI=1S/C10H12N2O/c1-7-9(13-10(11)12-7)8-5-3-2-4-6-8/h2-7,9H,1H3,(H2,11,12)

>  <INCHI_KEY>
LJQBMYDFWFGESC-UHFFFAOYSA-N

>  <FORMULA>
C10H12N2O

>  <MOLECULAR_WEIGHT>
176.2151

>  <DRUGBANK_ID>
DB01447

>  <DRUG_GROUPS>
experimental; illicit

>  <GENERIC_NAME>
4-Methylaminorex

>  <SYNONYMS>


$$$$
Compound 13
Actelion Java MolfileCreator 2.0

  0  0  0  0  0  0              0 V3000
M  V30 BEGIN CTAB
M  V30 COUNTS 30 35 0 0 0
M  V30 BEGIN ATOM
M  V30 1 O 0.0 0.0 0.0 0
M  V30 2 C -1.4608 1.0683 0.0 0
M  V30 3 C 1.3736 1.0683 0.0 0 CFG=1
M  V30 4 C -2.9217 1.1337 0.0 0
M  V30 5 C -0.8067 2.3984 0.0 0
M  V30 6 C 2.7254 1.1337 0.0 0 CFG=2
M  V30 7 C 0.5887 2.3984 0.0 0 CFG=2
M  V30 8 O -3.7284 -0.109 0.0 0
M  V30 9 C -3.7066 2.4638 0.0 0
M  V30 10 C -1.5916 3.7284 0.0 0
M  V30 11 O 3.4013 -0.109 0.0 0
M  V30 12 C 3.3795 2.4638 0.0 0 CFG=1
M  V30 13 C 1.7006 1.9405 0.0 0
M  V30 14 C 1.2428 3.7284 0.0 0 CFG=1
M  V30 15 C -0.1962 3.7284 0.0 0
M  V30 16 C -3.0525 3.7938 0.0 0
M  V30 17 C -0.9375 5.0584 0.0 0
M  V30 18 C 2.5946 -1.3518 0.0 0
M  V30 19 C 4.775 2.5292 0.0 0 CFG=2
M  V30 20 C 2.5946 3.7938 0.0 0
M  V30 21 C 2.1803 3.0961 0.0 0
M  V30 22 C 0.4578 5.0584 0.0 0 CFG=1
M  V30 23 C -0.2834 6.5193 0.0 0
M  V30 24 O 4.7096 4.0555 0.0 0
M  V30 25 C 6.1704 2.5946 0.0 0
M  V30 26 C 4.7096 1.1337 0.0 0
M  V30 27 N 1.1119 6.3885 0.0 0
M  V30 28 C 6.8464 3.9682 0.0 0
M  V30 29 C 2.3984 7.0862 0.0 0
M  V30 30 C 8.2418 4.0337 0.0 0
M  V30 END ATOM
M  V30 BEGIN BOND
M  V30 1 1 1 2
M  V30 2 1 3 1 CFG=3
M  V30 3 2 2 4
M  V30 4 1 2 5
M  V30 5 1 3 6
M  V30 6 1 3 7
M  V30 7 1 4 8
M  V30 8 1 4 9
M  V30 9 2 5 10
M  V30 10 1 6 11 CFG=3
M  V30 11 1 6 12
M  V30 12 1 6 13
M  V30 13 1 7 14
M  V30 14 1 7 15 CFG=1
M  V30 15 2 9 16
M  V30 16 1 10 17
M  V30 17 1 11 18
M  V30 18 1 19 12 CFG=3
M  V30 19 1 12 20 CFG=3
M  V30 20 1 13 21
M  V30 21 1 14 22
M  V30 22 1 15 23
M  V30 23 1 19 24
M  V30 24 1 19 25
M  V30 25 1 19 26
M  V30 26 1 22 27 CFG=1
M  V30 27 1 25 28
M  V30 28 1 27 29
M  V30 29 1 28 30
M  V30 30 1 5 7
M  V30 31 1 10 16
M  V30 32 1 14 20 CFG=1
M  V30 33 1 14 21
M  V30 34 1 17 22
M  V30 35 1 23 27
M  V30 END BOND
M  V30 BEGIN COLLECTION
M  V30 MDLV30/STEABS ATOMS=(7 3 6 7 12 14 19 22)
M  V30 END COLLECTION
M  V30 END CTAB
M  END
>  <SMILES>
[H][C@@]12OC3=C(O)C=CC4=C3[C@@]11CCN(C)[C@]([H])(C4)[C@]11CC[C@@]2(OC)[C@]([H])(C1)[C@](C)(O)CCC

>  <INCHI_IDENTIFIER>
InChI=1S/C25H35NO4/c1-5-8-22(2,28)17-14-23-9-10-25(17,29-4)21-24(23)11-12-26(3)18(23)13-15-6-7-16(27)20(30-21)19(15)24/h6-7,17-18,21,27-28H,5,8-14H2,1-4H3/t17-,18-,21-,22-,23-,24+,25-/m1/s1

>  <INCHI_KEY>
BRTSNYPDACNMIP-FAWZKKEFSA-N

>  <FORMULA>
C25H35NO4

>  <MOLECULAR_WEIGHT>
413.5497

>  <DRUGBANK_ID>
DB01450

>  <DRUG_GROUPS>
experimental; illicit

>  <GENERIC_NAME>
Dihydroetorphine

>  <SYNONYMS>


$$$$
Compound 14
Actelion Java MolfileCreator 2.0

  0  0  0  0  0  0              0 V3000
M  V30 BEGIN CTAB
M  V30 COUNTS 21 24 0 0 0
M  V30 BEGIN ATOM
M  V30 1 O 0.0 0.0 0.0 0
M  V30 2 C 1.2665 0.7719 0.0 0
M  V30 3 C 1.2303 2.3158 0.0 0
M  V30 4 C 2.533 0.0482 0.0 0
M  V30 5 C 2.4968 3.0878 0.0 0
M  V30 6 C 3.7995 0.8322 0.0 0 CFG=1
M  V30 7 C 3.7633 2.3641 0.0 0 CFG=1
M  V30 8 C 5.066 0.1085 0.0 0
M  V30 9 C 5.0298 3.1481 0.0 0 CFG=2
M  V30 10 C 3.7271 3.908 0.0 0
M  V30 11 C 6.3325 0.8805 0.0 0
M  V30 12 C 6.2963 2.4244 0.0 0 CFG=1
M  V30 13 C 4.9936 4.6921 0.0 0
M  V30 14 C 7.5628 3.2084 0.0 0 CFG=1
M  V30 15 C 6.2601 5.464 0.0 0
M  V30 16 C 7.5266 4.7524 0.0 0 CFG=2
M  V30 17 C 8.962 2.7742 0.0 0
M  V30 18 C 8.9258 5.259 0.0 0
M  V30 19 C 7.4904 6.2963 0.0 0
M  V30 20 C 9.8063 4.0286 0.0 0
M  V30 21 O 9.36 6.7305 0.0 0
M  V30 END ATOM
M  V30 BEGIN BOND
M  V30 1 2 1 2
M  V30 2 1 2 3
M  V30 3 1 2 4
M  V30 4 2 3 5
M  V30 5 1 6 4 CFG=1
M  V30 6 1 5 7
M  V30 7 1 6 8
M  V30 8 1 7 9
M  V30 9 1 7 10 CFG=1
M  V30 10 1 8 11
M  V30 11 1 9 12
M  V30 12 1 9 13 CFG=1
M  V30 13 1 12 14
M  V30 14 1 13 15
M  V30 15 1 14 16
M  V30 16 1 14 17 CFG=1
M  V30 17 1 16 18
M  V30 18 1 16 19 CFG=1
M  V30 19 1 17 20
M  V30 20 2 18 21
M  V30 21 1 6 7
M  V30 22 1 12 11 CFG=3
M  V30 23 1 15 16
M  V30 24 1 18 20
M  V30 END BOND
M  V30 BEGIN COLLECTION
M  V30 MDLV30/STERAC1 ATOMS=(6 6 7 9 12 14 16)
M  V30 END COLLECTION
M  V30 END CTAB
M  END
>  <SMILES>
[H][C@@]12CCC(=O)[C@@]1(C)CC[C@@]1([H])[C@@]2([H])CC[C@@]2([H])CC(=O)C=C[C@]12C

>  <INCHI_IDENTIFIER>
InChI=1S/C19H26O2/c1-18-9-7-13(20)11-12(18)3-4-14-15-5-6-17(21)19(15,2)10-8-16(14)18/h7,9,12,14-16H,3-6,8,10-11H2,1-2H3/t12-,14-,15-,16-,18-,19-/m0/s1

>  <INCHI_KEY>
WJIQCDPCDVWDDE-WZNAKSSCSA-N

>  <FORMULA>
C19H26O2

>  <MOLECULAR_WEIGHT>
286.415

>  <DRUGBANK_ID>
DB01451

>  <DRUG_GROUPS>
experimental; illicit

>  <GENERIC_NAME>
1-Androstenedione

>  <SYNONYMS>
5alpha-androst-1-ene-3,17-dione

$$$$
Compound 15
Actelion Java MolfileCreator 2.0

  0  0  0  0  0  0              0 V3000
M  V30 BEGIN CTAB
M  V30 COUNTS 26 28 0 0 0
M  V30 BEGIN ATOM
M  V30 1 O 0.0 0.0 0.0 0
M  V30 2 C 1.2707 0.7866 0.0 0
M  V30 3 N 2.5414 0.0605 0.0 0
M  V30 4 C 1.2344 2.3357 0.0 0
M  V30 5 C 3.8121 0.8471 0.0 0
M  V30 6 C 2.5051 -1.4159 0.0 0
M  V30 7 C -0.1089 3.1344 0.0 0
M  V30 8 C 3.7758 2.3962 0.0 0
M  V30 9 C 5.0829 0.121 0.0 0
M  V30 10 C 1.1618 -2.1541 0.0 0
M  V30 11 C 3.7758 -2.1541 0.0 0
M  V30 12 C 5.0466 3.1828 0.0 0
M  V30 13 C 6.3536 0.9076 0.0 0
M  V30 14 C 1.1255 -3.6306 0.0 0
M  V30 15 C 3.7395 -3.6306 0.0 0
M  V30 16 C 6.3173 2.4446 0.0 0
M  V30 17 N 2.3962 -4.3689 0.0 0
M  V30 18 C 2.3599 -5.8453 0.0 0
M  V30 19 C 1.0165 -6.5836 0.0 0 CFG=2
M  V30 20 O -0.3267 -5.7969 0.0 0
M  V30 21 C 0.9802 -8.06 0.0 0
M  V30 22 C 2.251 -8.7862 0.0 0
M  V30 23 C -0.363 -8.7862 0.0 0
M  V30 24 C 2.2147 -10.2626 0.0 0
M  V30 25 C -0.3993 -10.2626 0.0 0
M  V30 26 C 0.8713 -11.0009 0.0 0
M  V30 END ATOM
M  V30 BEGIN BOND
M  V30 1 2 1 2
M  V30 2 1 2 3
M  V30 3 1 2 4
M  V30 4 1 3 5
M  V30 5 1 3 6
M  V30 6 1 4 7
M  V30 7 2 5 8
M  V30 8 1 5 9
M  V30 9 1 6 10
M  V30 10 1 6 11
M  V30 11 1 8 12
M  V30 12 2 9 13
M  V30 13 1 10 14
M  V30 14 1 11 15
M  V30 15 2 12 16
M  V30 16 1 14 17
M  V30 17 1 17 18
M  V30 18 1 18 19
M  V30 19 1 19 20 CFG=1
M  V30 20 1 19 21
M  V30 21 2 21 22
M  V30 22 1 21 23
M  V30 23 1 22 24
M  V30 24 2 23 25
M  V30 25 2 24 26
M  V30 26 1 13 16
M  V30 27 1 15 17
M  V30 28 1 25 26
M  V30 END BOND
M  V30 BEGIN COLLECTION
M  V30 MDLV30/STERAC1 ATOMS=(1 19)
M  V30 END COLLECTION
M  V30 END CTAB
M  END
>  <SMILES>
CCC(=O)N(C1CCN(CC(O)C2=CC=CC=C2)CC1)C1=CC=CC=C1

>  <INCHI_IDENTIFIER>
InChI=1S/C22H28N2O2/c1-2-22(26)24(19-11-7-4-8-12-19)20-13-15-23(16-14-20)17-21(25)18-9-5-3-6-10-18/h3-12,20-21,25H,2,13-17H2,1H3

>  <INCHI_KEY>
JEFVHLMGRUJLET-UHFFFAOYSA-N

>  <FORMULA>
C22H28N2O2

>  <MOLECULAR_WEIGHT>
352.4699

>  <DRUGBANK_ID>
DB01453

>  <DRUG_GROUPS>
experimental; illicit

>  <GENERIC_NAME>
Beta-hydroxyfentanyl

>  <SYNONYMS>


$$$$
Compound 16
Actelion Java MolfileCreator 2.0

  0  0  0  0  0  0              0 V3000
M  V30 BEGIN CTAB
M  V30 COUNTS 20 23 0 0 0
M  V30 BEGIN ATOM
M  V30 1 O 0.0 0.0 0.0 0
M  V30 2 C 1.2638 0.7777 0.0 0 CFG=2
M  V30 3 C 2.5277 0.0486 0.0 0
M  V30 4 C 1.2274 2.3333 0.0 0
M  V30 5 C 3.7916 0.8263 0.0 0
M  V30 6 C 2.4912 3.1232 0.0 0
M  V30 7 C 5.0555 0.0972 0.0 0
M  V30 8 C 3.7551 2.3819 0.0 0 CFG=2
M  V30 9 C 6.3193 0.8871 0.0 0
M  V30 10 C 5.019 3.1718 0.0 0 CFG=2
M  V30 11 C 6.2829 2.4426 0.0 0 CFG=2
M  V30 12 C 4.9825 4.703 0.0 0
M  V30 13 C 7.5468 3.2326 0.0 0 CFG=1
M  V30 14 C 6.2464 5.493 0.0 0
M  V30 15 C 7.5103 4.7638 0.0 0 CFG=2
M  V30 16 C 8.9322 2.7951 0.0 0
M  V30 17 C 8.8957 5.2742 0.0 0 CFG=2
M  V30 18 C 7.4738 6.3072 0.0 0
M  V30 19 C 9.7829 4.0468 0.0 0
M  V30 20 O 9.3332 6.7568 0.0 0
M  V30 END ATOM
M  V30 BEGIN BOND
M  V30 1 1 2 1 CFG=1
M  V30 2 1 2 3
M  V30 3 1 2 4
M  V30 4 1 3 5
M  V30 5 1 4 6
M  V30 6 2 5 7
M  V30 7 1 5 8
M  V30 8 1 7 9
M  V30 9 1 8 10
M  V30 10 1 11 9 CFG=3
M  V30 11 1 10 12 CFG=1
M  V30 12 1 11 13
M  V30 13 1 12 14
M  V30 14 1 13 15
M  V30 15 1 13 16 CFG=1
M  V30 16 1 15 17
M  V30 17 1 15 18 CFG=1
M  V30 18 1 16 19
M  V30 19 1 17 20 CFG=1
M  V30 20 1 8 6 CFG=3
M  V30 21 1 10 11
M  V30 22 1 14 15
M  V30 23 1 17 19
M  V30 END BOND
M  V30 BEGIN COLLECTION
M  V30 MDLV30/STERAC1 ATOMS=(7 2 8 10 11 13 15 17)
M  V30 END COLLECTION
M  V30 END CTAB
M  END
>  <SMILES>
[H][C@@]12CC[C@H](O)[C@@]1(C)CC[C@]1([H])[C@@]3([H])CC[C@H](O)CC3=CC[C@@]21[H]

>  <INCHI_IDENTIFIER>
InChI=1S/C18H28O2/c1-18-9-8-14-13-5-3-12(19)10-11(13)2-4-15(14)16(18)6-7-17(18)20/h2,12-17,19-20H,3-10H2,1H3/t12-,13-,14+,15+,16-,17-,18-/m0/s1

>  <INCHI_KEY>
VVUQRXPUVKXAIO-XFUVECHXSA-N

>  <FORMULA>
C18H28O2

>  <MOLECULAR_WEIGHT>
276.4137

>  <DRUGBANK_ID>
DB01455

>  <DRUG_GROUPS>
experimental; illicit

>  <GENERIC_NAME>
19-Nor-5-androstenediol

>  <SYNONYMS>


$$$$
Compound 17
Actelion Java MolfileCreator 2.0

  0  0  0  0  0  0              0 V3000
M  V30 BEGIN CTAB
M  V30 COUNTS 21 24 0 0 0
M  V30 BEGIN ATOM
M  V30 1 O 0.0 0.0 0.0 0
M  V30 2 C 1.1256 0.7899 0.0 0
M  V30 3 C 2.3302 0.1184 0.0 0
M  V30 4 C 1.0663 2.2907 0.0 0
M  V30 5 C 3.4558 0.9083 0.0 0
M  V30 6 C 2.2709 3.0213 0.0 0
M  V30 7 C 4.6406 0.2369 0.0 0
M  V30 8 C 3.3965 2.4092 0.0 0 CFG=2
M  V30 9 C 5.8255 0.9676 0.0 0
M  V30 10 C 4.5814 3.1398 0.0 0 CFG=2
M  V30 11 C 3.3373 4.0482 0.0 0
M  V30 12 C 5.7662 2.5474 0.0 0 CFG=2
M  V30 13 C 4.5221 4.7196 0.0 0
M  V30 14 C 6.8919 3.3373 0.0 0 CFG=1
M  V30 15 C 5.707 5.5095 0.0 0
M  V30 16 C 6.8326 4.8381 0.0 0 CFG=2
M  V30 17 C 9.38 3.3965 0.0 0
M  V30 18 C 8.0175 5.628 0.0 0
M  V30 19 C 6.6944 6.7141 0.0 0
M  V30 20 C 9.3208 4.8973 0.0 0
M  V30 21 O 7.9582 7.1288 0.0 0
M  V30 END ATOM
M  V30 BEGIN BOND
M  V30 1 2 1 2
M  V30 2 1 2 3
M  V30 3 1 2 4
M  V30 4 1 3 5
M  V30 5 1 4 6
M  V30 6 2 5 7
M  V30 7 1 5 8
M  V30 8 1 7 9
M  V30 9 1 8 10
M  V30 10 1 8 11 CFG=1
M  V30 11 1 12 9 CFG=3
M  V30 12 1 10 13 CFG=1
M  V30 13 1 12 14
M  V30 14 1 13 15
M  V30 15 1 14 16
M  V30 16 1 14 17 CFG=1
M  V30 17 1 16 18
M  V30 18 1 16 19 CFG=1
M  V30 19 1 17 20
M  V30 20 2 18 21
M  V30 21 1 6 8
M  V30 22 1 10 12
M  V30 23 1 15 16
M  V30 24 1 18 20
M  V30 END BOND
M  V30 BEGIN COLLECTION
M  V30 MDLV30/STEABS ATOMS=(5 8 10 12 14 16)
M  V30 END COLLECTION
M  V30 END CTAB
M  END
>  <SMILES>
[H][C@@]12CCC(=O)[C@@]1(C)CC[C@@]1([H])[C@@]2([H])CC=C2CC(=O)CC[C@]12C

>  <INCHI_IDENTIFIER>
InChI=1S/C19H26O2/c1-18-9-7-13(20)11-12(18)3-4-14-15-5-6-17(21)19(15,2)10-8-16(14)18/h3,14-16H,4-11H2,1-2H3/t14-,15-,16-,18-,19-/m0/s1

>  <INCHI_KEY>
SQGZFRITSMYKRH-QAGGRKNESA-N

>  <FORMULA>
C19H26O2

>  <MOLECULAR_WEIGHT>
286.415

>  <DRUGBANK_ID>
DB01456

>  <DRUG_GROUPS>
experimental; illicit

>  <GENERIC_NAME>
5-androstenedione

>  <SYNONYMS>
5-Androstene-3,17-dione; androst-5-ene-3,17-dione; delta5-Androstene-3,17-dione

$$$$
Compound 18
Actelion Java MolfileCreator 2.0

  0  0  0  0  0  0              0 V3000
M  V30 BEGIN CTAB
M  V30 COUNTS 17 17 0 0 0
M  V30 BEGIN ATOM
M  V30 1 S 0.0 0.0 0.0 0
M  V30 2 C -0.0361 -1.4702 0.0 0
M  V30 3 C -1.3376 0.7833 0.0 0
M  V30 4 C -1.3738 -2.1932 0.0 0
M  V30 5 C 1.2292 -2.1932 0.0 0
M  V30 6 C -1.3738 2.3258 0.0 0
M  V30 7 O -2.7114 -1.4099 0.0 0
M  V30 8 C -1.4099 -3.6635 0.0 0
M  V30 9 C 1.193 -3.6635 0.0 0
M  V30 10 C -2.7114 3.1091 0.0 0
M  V30 11 C -2.7476 0.1325 0.0 0
M  V30 12 C -0.1446 -4.3865 0.0 0
M  V30 13 O 2.4584 -4.3865 0.0 0
M  V30 14 C -0.1807 -5.8568 0.0 0
M  V30 15 C 2.4222 -5.8568 0.0 0
M  V30 16 C -1.5184 -6.5919 0.0 0
M  V30 17 N -1.5545 -8.0621 0.0 0
M  V30 END ATOM
M  V30 BEGIN BOND
M  V30 1 1 1 2
M  V30 2 1 1 3
M  V30 3 2 2 4
M  V30 4 1 2 5
M  V30 5 1 3 6
M  V30 6 1 4 7
M  V30 7 1 4 8
M  V30 8 2 5 9
M  V30 9 1 6 10
M  V30 10 1 7 11
M  V30 11 2 8 12
M  V30 12 1 9 13
M  V30 13 1 12 14
M  V30 14 1 13 15
M  V30 15 1 14 16
M  V30 16 1 16 17
M  V30 17 1 9 12
M  V30 END BOND
M  V30 END CTAB
M  END
>  <SMILES>
CCCSC1=CC(OC)=C(CCN)C=C1OC

>  <INCHI_IDENTIFIER>
InChI=1S/C13H21NO2S/c1-4-7-17-13-9-11(15-2)10(5-6-14)8-12(13)16-3/h8-9H,4-7,14H2,1-3H3

>  <INCHI_KEY>
OLEVEPDJOFPJTF-UHFFFAOYSA-N

>  <FORMULA>
C13H21NO2S

>  <MOLECULAR_WEIGHT>
255.38

>  <DRUGBANK_ID>
DB01458

>  <DRUG_GROUPS>
experimental; illicit

>  <GENERIC_NAME>
2,5-Dimethoxy-4-(n)-propylthiophenethylamine

>  <SYNONYMS>
2,5-dimethoxy-4-propylthiophenethylamine

$$$$
Compound 19
Actelion Java MolfileCreator 2.0

  0  0  0  0  0  0              0 V3000
M  V30 BEGIN CTAB
M  V30 COUNTS 37 41 0 0 0
M  V30 BEGIN ATOM
M  V30 1 O 0.0 0.0 0.0 0
M  V30 2 C -1.533 0.0359 0.0 0
M  V30 3 N -2.4312 -1.1258 0.0 0
M  V30 4 N -2.4312 1.2695 0.0 0
M  V30 5 C -3.8804 -0.6227 0.0 0
M  V30 6 C -2.0001 -2.5151 0.0 0
M  V30 7 C -3.8804 0.8383 0.0 0
M  V30 8 C -2.0001 2.7307 0.0 0
M  V30 9 C -5.2099 -1.3533 0.0 0
M  V30 10 O -3.0301 -3.593 0.0 0
M  V30 11 C -0.5748 -2.7905 0.0 0
M  V30 12 C -5.2099 1.6168 0.0 0
M  V30 13 C -0.5748 3.078 0.0 0
M  V30 14 C -3.0301 3.8804 0.0 0
M  V30 15 C -6.5393 -0.5748 0.0 0
M  V30 16 C -0.1437 -4.1799 0.0 0
M  V30 17 C -6.5393 0.8862 0.0 0
M  V30 18 C -0.1437 4.5392 0.0 0
M  V30 19 C -2.5989 5.3416 0.0 0
M  V30 20 N -1.1737 5.6889 0.0 0
M  V30 21 C -0.7425 7.1501 0.0 0
M  V30 22 C 0.6826 7.4974 0.0 0
M  V30 23 C 1.1138 8.9586 0.0 0
M  V30 24 C -0.3473 9.4616 0.0 0
M  V30 25 C 2.5031 8.5274 0.0 0
M  V30 26 C 1.545 10.4198 0.0 0
M  V30 27 N -1.8084 9.9646 0.0 0
M  V30 28 C 3.581 9.5574 0.0 0
M  V30 29 C 2.7786 7.1022 0.0 0
M  V30 30 C 0.515 11.5695 0.0 0
M  V30 31 C 2.9702 10.7671 0.0 0
M  V30 32 C 4.9703 9.1263 0.0 0
M  V30 33 C 4.1679 6.671 0.0 0
M  V30 34 C 0.9461 13.0307 0.0 0
M  V30 35 C 3.4014 12.2283 0.0 0
M  V30 36 C 5.2458 7.701 0.0 0
M  V30 37 C 2.3714 13.378 0.0 0
M  V30 END ATOM
M  V30 BEGIN BOND
M  V30 1 2 1 2
M  V30 2 1 2 3
M  V30 3 1 2 4
M  V30 4 1 3 5
M  V30 5 1 3 6
M  V30 6 1 4 7
M  V30 7 1 4 8
M  V30 8 1 5 9
M  V30 9 2 6 10
M  V30 10 1 6 11
M  V30 11 1 7 12
M  V30 12 1 8 13
M  V30 13 1 8 14
M  V30 14 2 9 15
M  V30 15 1 11 16
M  V30 16 2 12 17
M  V30 17 1 13 18
M  V30 18 1 14 19
M  V30 19 1 18 20
M  V30 20 1 20 21
M  V30 21 1 21 22
M  V30 22 1 22 23
M  V30 23 1 23 24
M  V30 24 1 23 25
M  V30 25 1 23 26
M  V30 26 3 24 27
M  V30 27 2 25 28
M  V30 28 1 25 29
M  V30 29 2 26 30
M  V30 30 1 26 31
M  V30 31 1 28 32
M  V30 32 2 29 33
M  V30 33 1 30 34
M  V30 34 2 31 35
M  V30 35 2 32 36
M  V30 36 2 34 37
M  V30 37 2 5 7
M  V30 38 1 15 17
M  V30 39 1 19 20
M  V30 40 1 33 36
M  V30 41 1 35 37
M  V30 END BOND
M  V30 END CTAB
M  END
>  <SMILES>
CCC(=O)N1C(=O)N(C2CCN(CCC(C#N)(C3=CC=CC=C3)C3=CC=CC=C3)CC2)C2=CC=CC=C12

>  <INCHI_IDENTIFIER>
InChI=1S/C31H32N4O2/c1-2-29(36)35-28-16-10-9-15-27(28)34(30(35)37)26-17-20-33(21-18-26)22-19-31(23-32,24-11-5-3-6-12-24)25-13-7-4-8-14-25/h3-16,26H,2,17-22H2,1H3

>  <INCHI_KEY>
FLKWNFFCSSJANB-UHFFFAOYSA-N

>  <FORMULA>
C31H32N4O2

>  <MOLECULAR_WEIGHT>
492.6114

>  <DRUGBANK_ID>
DB01459

>  <DRUG_GROUPS>
experimental; illicit; withdrawn

>  <GENERIC_NAME>
Bezitramide

>  <SYNONYMS>
Bezitramida; Bezitramide; Bezitramidum

$$$$
Compound 20
Actelion Java MolfileCreator 2.0

  0  0  0  0  0  0              0 V3000
M  V30 BEGIN CTAB
M  V30 COUNTS 16 17 0 0 0
M  V30 BEGIN ATOM
M  V30 1 N 0.0 0.0 0.0 0
M  V30 2 C -0.491 -1.3913 0.0 0
M  V30 3 C -1.0405 1.1574 0.0 0
M  V30 4 C 1.4263 0.339 0.0 0
M  V30 5 C -1.9875 -1.6602 0.0 0
M  V30 6 C -0.6196 2.6189 0.0 0
M  V30 7 C 1.8472 1.8005 0.0 0
M  V30 8 C -2.4786 -3.0515 0.0 0
M  V30 9 C -3.9284 -3.4724 0.0 0
M  V30 10 C -1.6368 -4.2207 0.0 0
M  V30 11 C -3.9634 -4.9338 0.0 0
M  V30 12 C -5.2612 -2.6773 0.0 0
M  V30 13 N -2.5487 -5.3898 0.0 0
M  V30 14 C -5.2963 -5.647 0.0 0
M  V30 15 C -6.5941 -3.4022 0.0 0
M  V30 16 C -6.6291 -4.852 0.0 0
M  V30 END ATOM
M  V30 BEGIN BOND
M  V30 1 1 1 2
M  V30 2 1 1 3
M  V30 3 1 1 4
M  V30 4 1 2 5
M  V30 5 1 3 6
M  V30 6 1 4 7
M  V30 7 1 5 8
M  V30 8 1 8 9
M  V30 9 2 8 10
M  V30 10 2 9 11
M  V30 11 1 9 12
M  V30 12 1 10 13
M  V30 13 1 11 14
M  V30 14 2 12 15
M  V30 15 2 14 16
M  V30 16 1 11 13
M  V30 17 1 15 16
M  V30 END BOND
M  V30 END CTAB
M  END
>  <SMILES>
CCN(CC)CCC1=CNC2=CC=CC=C12

>  <INCHI_IDENTIFIER>
InChI=1S/C14H20N2/c1-3-16(4-2)10-9-12-11-15-14-8-6-5-7-13(12)14/h5-8,11,15H,3-4,9-10H2,1-2H3

>  <INCHI_KEY>
LSSUMOWDTKZHHT-UHFFFAOYSA-N

>  <FORMULA>
C14H20N2

>  <MOLECULAR_WEIGHT>
216.322

>  <DRUGBANK_ID>
DB01460

>  <DRUG_GROUPS>
experimental; illicit

>  <GENERIC_NAME>
Diethyltryptamine

>  <SYNONYMS>
3-(2-Diethylaminoethyl)indole; DET; N,N-Diethyltryptamine

$$$$
Compound 21
Actelion Java MolfileCreator 2.0

  0  0  0  0  0  0              0 V3000
M  V30 BEGIN CTAB
M  V30 COUNTS 24 25 0 0 0
M  V30 BEGIN ATOM
M  V30 1 O 0.0 0.0 0.0 0
M  V30 2 C -0.7697 -1.2628 0.0 0
M  V30 3 O -0.0481 -2.5257 0.0 0
M  V30 4 C -2.3092 -1.2267 0.0 0
M  V30 5 C 1.4192 -2.4896 0.0 0
M  V30 6 O -3.8487 -1.1906 0.0 0
M  V30 7 C -2.3453 -2.6941 0.0 0
M  V30 8 C -2.3453 0.3127 0.0 0
M  V30 9 C 2.1408 -3.7525 0.0 0
M  V30 10 C -4.6184 0.1443 0.0 0
M  V30 11 C -1.0824 -3.4157 0.0 0
M  V30 12 C -3.6803 -3.4157 0.0 0
M  V30 13 C -3.6803 1.0944 0.0 0
M  V30 14 C -1.0824 1.0944 0.0 0
M  V30 15 N 3.6081 -3.7164 0.0 0
M  V30 16 C -6.1579 0.1804 0.0 0
M  V30 17 C -1.1185 -4.883 0.0 0
M  V30 18 C -3.7164 -4.883 0.0 0
M  V30 19 C -3.7164 2.6339 0.0 0
M  V30 20 C -1.1185 2.6339 0.0 0
M  V30 21 C 4.3298 -4.9792 0.0 0
M  V30 22 C 4.3298 -2.3813 0.0 0
M  V30 23 C -2.4535 -5.6167 0.0 0
M  V30 24 C -2.4535 3.4157 0.0 0
M  V30 END ATOM
M  V30 BEGIN BOND
M  V30 1 2 1 2
M  V30 2 1 2 3
M  V30 3 1 2 4
M  V30 4 1 3 5
M  V30 5 1 4 6
M  V30 6 1 4 7
M  V30 7 1 4 8
M  V30 8 1 5 9
M  V30 9 1 6 10
M  V30 10 2 7 11
M  V30 11 1 7 12
M  V30 12 2 8 13
M  V30 13 1 8 14
M  V30 14 1 9 15
M  V30 15 1 10 16
M  V30 16 1 11 17
M  V30 17 2 12 18
M  V30 18 1 13 19
M  V30 19 2 14 20
M  V30 20 1 15 21
M  V30 21 1 15 22
M  V30 22 2 17 23
M  V30 23 2 19 24
M  V30 24 1 18 23
M  V30 25 1 20 24
M  V30 END BOND
M  V30 END CTAB
M  END
>  <SMILES>
CCOC(C(=O)OCCN(C)C)(C1=CC=CC=C1)C1=CC=CC=C1

>  <INCHI_IDENTIFIER>
InChI=1S/C20H25NO3/c1-4-24-20(17-11-7-5-8-12-17,18-13-9-6-10-14-18)19(22)23-16-15-21(2)3/h5-14H,4,15-16H2,1-3H3

>  <INCHI_KEY>
RHUWRJWFHUKVED-UHFFFAOYSA-N

>  <FORMULA>
C20H25NO3

>  <MOLECULAR_WEIGHT>
327.4174

>  <DRUGBANK_ID>
DB01461

>  <DRUG_GROUPS>
experimental; illicit

>  <GENERIC_NAME>
Dimenoxadol

>  <SYNONYMS>
Dimenossadolo; Dimenoxadol; Dimenoxadole; Dimenoxadolum

$$$$
Compound 22
Actelion Java MolfileCreator 2.0

  0  0  0  0  0  0              0 V3000
M  V30 BEGIN CTAB
M  V30 COUNTS 29 31 0 0 0
M  V30 BEGIN ATOM
M  V30 1 O 0.0 0.0 0.0 0
M  V30 2 N -0.0363 1.5503 0.0 0 CHG=1
M  V30 3 O -1.3807 2.3376 0.0 0 CHG=-1
M  V30 4 C 1.2354 2.3376 0.0 0
M  V30 5 C 2.5072 1.6109 0.0 0
M  V30 6 C 1.1991 3.888 0.0 0
M  V30 7 C 3.779 2.3982 0.0 0
M  V30 8 C 2.4708 4.6632 0.0 0
M  V30 9 N 5.1719 1.9621 0.0 0
M  V30 10 C 3.7426 3.9485 0.0 0
M  V30 11 C 6.0076 3.2097 0.0 0
M  V30 12 N 5.1355 4.4573 0.0 0
M  V30 13 C 7.4853 3.246 0.0 0
M  V30 14 C 5.5716 5.9349 0.0 0
M  V30 15 C 8.212 1.9742 0.0 0
M  V30 16 C 7.0129 6.2862 0.0 0
M  V30 17 C 9.6897 2.0106 0.0 0
M  V30 18 C 7.4247 0.7025 0.0 0
M  V30 19 N 7.449 7.7639 0.0 0
M  V30 20 C 10.4165 0.7388 0.0 0
M  V30 21 C 8.1515 -0.5692 0.0 0
M  V30 22 C 8.8903 8.1151 0.0 0
M  V30 23 C 6.4073 8.9267 0.0 0
M  V30 24 C 9.6292 -0.5329 0.0 0
M  V30 25 C 9.3264 9.5928 0.0 0
M  V30 26 C 6.8434 10.4044 0.0 0
M  V30 27 O 10.3559 -1.8047 0.0 0
M  V30 28 C 11.8336 -1.7683 0.0 0
M  V30 29 C 12.5603 -3.0401 0.0 0
M  V30 END ATOM
M  V30 BEGIN BOND
M  V30 1 2 1 2
M  V30 2 1 2 3
M  V30 3 1 2 4
M  V30 4 2 4 5
M  V30 5 1 4 6
M  V30 6 1 5 7
M  V30 7 2 6 8
M  V30 8 1 7 9
M  V30 9 2 7 10
M  V30 10 2 9 11
M  V30 11 1 10 12
M  V30 12 1 11 13
M  V30 13 1 12 14
M  V30 14 1 13 15
M  V30 15 1 14 16
M  V30 16 2 15 17
M  V30 17 1 15 18
M  V30 18 1 16 19
M  V30 19 1 17 20
M  V30 20 2 18 21
M  V30 21 1 19 22
M  V30 22 1 19 23
M  V30 23 2 20 24
M  V30 24 1 22 25
M  V30 25 1 23 26
M  V30 26 1 24 27
M  V30 27 1 27 28
M  V30 28 1 28 29
M  V30 29 1 8 10
M  V30 30 1 11 12
M  V30 31 1 21 24
M  V30 END BOND
M  V30 END CTAB
M  END
>  <SMILES>
CCOC1=CC=C(CC2=NC3=C(C=CC(=C3)[N+]([O-])=O)N2CCN(CC)CC)C=C1

>  <INCHI_IDENTIFIER>
InChI=1S/C22H28N4O3/c1-4-24(5-2)13-14-25-21-12-9-18(26(27)28)16-20(21)23-22(25)15-17-7-10-19(11-8-17)29-6-3/h7-12,16H,4-6,13-15H2,1-3H3

>  <INCHI_KEY>
PXDBZSCGSQSKST-UHFFFAOYSA-N

>  <FORMULA>
C22H28N4O3

>  <MOLECULAR_WEIGHT>
396.4827

>  <DRUGBANK_ID>
DB01462

>  <DRUG_GROUPS>
experimental; illicit

>  <GENERIC_NAME>
Etonitazene

>  <SYNONYMS>


$$$$
Compound 23
Actelion Java MolfileCreator 2.0

  0  0  0  0  0  0              0 V3000
M  V30 BEGIN CTAB
M  V30 COUNTS 16 18 0 0 0
M  V30 BEGIN ATOM
M  V30 1 N 0.0 0.0 0.0 0
M  V30 2 C 1.0308 -0.2241 0.0 0
M  V30 3 C -0.3585 1.1653 0.0 0
M  V30 4 C 1.5239 -1.1429 0.0 0
M  V30 5 C 3.8545 1.0981 0.0 0
M  V30 6 C -1.5239 1.5239 0.0 0
M  V30 7 C 1.1653 -2.1738 0.0 0
M  V30 8 C 3.4736 0.0672 0.0 0
M  V30 9 C 2.9357 2.2858 0.0 0
M  V30 10 C 5.9163 0.2913 0.0 0
M  V30 11 C 0.0 -2.3979 0.0 0
M  V30 12 C 1.9048 -2.9133 0.0 0
M  V30 13 C 5.5353 -0.7395 0.0 0
M  V30 14 C -0.3585 -3.4287 0.0 0
M  V30 15 C 1.5463 -3.9442 0.0 0
M  V30 16 C 0.3809 -4.1683 0.0 0
M  V30 END ATOM
M  V30 BEGIN BOND
M  V30 1 1 1 2
M  V30 2 1 1 3
M  V30 3 1 2 4
M  V30 4 1 2 5
M  V30 5 1 3 6
M  V30 6 1 4 7
M  V30 7 1 4 8
M  V30 8 1 5 9
M  V30 9 1 5 10
M  V30 10 2 7 11
M  V30 11 1 7 12
M  V30 12 1 8 13
M  V30 13 1 11 14
M  V30 14 2 12 15
M  V30 15 2 14 16
M  V30 16 1 8 9
M  V30 17 1 10 13
M  V30 18 1 15 16
M  V30 END BOND
M  V30 END CTAB
M  END
>  <SMILES>
CCNC1C2CCC(C2)C1C1=CC=CC=C1

>  <INCHI_IDENTIFIER>
InChI=1S/C15H21N/c1-2-16-15-13-9-8-12(10-13)14(15)11-6-4-3-5-7-11/h3-7,12-16H,2,8-10H2,1H3

>  <INCHI_KEY>
IKFBPFGUINLYQI-UHFFFAOYSA-N

>  <FORMULA>
C15H21N

>  <MOLECULAR_WEIGHT>
215.3339

>  <DRUGBANK_ID>
DB01463

>  <DRUG_GROUPS>
experimental; illicit; withdrawn

>  <GENERIC_NAME>
Fencamfamin

>  <SYNONYMS>
Fencamfamin; Fencamfamina; Fencamfamine; Fencamfaminum; Fencanfamina; Phencamphamine

$$$$
Compound 24
Actelion Java MolfileCreator 2.0

  0  0  0  0  0  0              0 V3000
M  V30 BEGIN CTAB
M  V30 COUNTS 26 28 0 0 0
M  V30 BEGIN ATOM
M  V30 1 O 0.0 0.0 0.0 0
M  V30 2 C -0.3026 -1.4525 0.0 0
M  V30 3 O -1.8519 -1.4161 0.0 0
M  V30 4 C 0.4236 -2.7234 0.0 0
M  V30 5 C -2.6387 -0.0726 0.0 0
M  V30 6 C 1.5372 -1.7187 0.0 0
M  V30 7 C 1.6945 -3.4497 0.0 0
M  V30 8 C -0.9199 -3.4497 0.0 0
M  V30 9 C -4.188 -0.0363 0.0 0
M  V30 10 C 1.2346 -0.1936 0.0 0
M  V30 11 C 2.9171 -2.2029 0.0 0
M  V30 12 C 1.6582 -4.9264 0.0 0
M  V30 13 C -0.9562 -4.9264 0.0 0
M  V30 14 C 2.3482 0.8109 0.0 0
M  V30 15 C 4.0307 -1.1983 0.0 0
M  V30 16 N 0.3147 -5.6526 0.0 0
M  V30 17 C 3.7281 0.3268 0.0 0
M  V30 18 C 0.2783 -7.1293 0.0 0
M  V30 19 C -1.0651 -7.8556 0.0 0
M  V30 20 O -1.1014 -9.3323 0.0 0
M  V30 21 C -2.445 -10.0586 0.0 0
M  V30 22 C -2.4813 -11.5353 0.0 0 CFG=2
M  V30 23 O -1.2951 -12.3826 0.0 0
M  V30 24 C -3.7402 -12.3826 0.0 0
M  V30 25 C -1.8035 -13.7867 0.0 0
M  V30 26 C -3.3044 -13.7867 0.0 0
M  V30 END ATOM
M  V30 BEGIN BOND
M  V30 1 2 1 2
M  V30 2 1 2 3
M  V30 3 1 2 4
M  V30 4 1 3 5
M  V30 5 1 4 6
M  V30 6 1 4 7
M  V30 7 1 4 8
M  V30 8 1 5 9
M  V30 9 2 6 10
M  V30 10 1 6 11
M  V30 11 1 7 12
M  V30 12 1 8 13
M  V30 13 1 10 14
M  V30 14 2 11 15
M  V30 15 1 12 16
M  V30 16 2 14 17
M  V30 17 1 16 18
M  V30 18 1 18 19
M  V30 19 1 19 20
M  V30 20 1 20 21
M  V30 21 1 22 21 CFG=3
M  V30 22 1 22 23
M  V30 23 1 22 24
M  V30 24 1 23 25
M  V30 25 1 24 26
M  V30 26 1 13 16
M  V30 27 1 15 17
M  V30 28 1 25 26
M  V30 END BOND
M  V30 BEGIN COLLECTION
M  V30 MDLV30/STERAC1 ATOMS=(1 22)
M  V30 END COLLECTION
M  V30 END CTAB
M  END
>  <SMILES>
CCOC(=O)C1(CCN(CCOCC2CCCO2)CC1)C1=CC=CC=C1

>  <INCHI_IDENTIFIER>
InChI=1S/C21H31NO4/c1-2-25-20(23)21(18-7-4-3-5-8-18)10-12-22(13-11-21)14-16-24-17-19-9-6-15-26-19/h3-5,7-8,19H,2,6,9-17H2,1H3

>  <INCHI_KEY>
NNCOZXNZFLUYGG-UHFFFAOYSA-N

>  <FORMULA>
C21H31NO4

>  <MOLECULAR_WEIGHT>
361.4751

>  <DRUGBANK_ID>
DB01464

>  <DRUG_GROUPS>
experimental; illicit

>  <GENERIC_NAME>
Furethidine

>  <SYNONYMS>


$$$$
Compound 25
Actelion Java MolfileCreator 2.0

  0  0  0  0  0  0              0 V3000
M  V30 BEGIN CTAB
M  V30 COUNTS 14 14 0 0 0
M  V30 BEGIN ATOM
M  V30 1 O 0.0 0.0 0.0 0
M  V30 2 C 1.2801 -0.7315 0.0 0
M  V30 3 C -1.3533 -0.7315 0.0 0
M  V30 4 C 2.5602 0.0487 0.0 0
M  V30 5 C 1.2435 -2.2189 0.0 0
M  V30 6 C 3.8404 -0.6827 0.0 0
M  V30 7 C 2.5237 1.6093 0.0 0
M  V30 8 C 2.5237 -2.9504 0.0 0
M  V30 9 C 3.8038 -2.1701 0.0 0
M  V30 10 C 3.8038 2.4018 0.0 0 CFG=1
M  V30 11 O 5.084 -2.9016 0.0 0
M  V30 12 N 3.7672 3.9623 0.0 0
M  V30 13 C 5.084 1.6702 0.0 0
M  V30 14 C 5.0474 -4.389 0.0 0
M  V30 END ATOM
M  V30 BEGIN BOND
M  V30 1 1 1 2
M  V30 2 1 1 3
M  V30 3 2 2 4
M  V30 4 1 2 5
M  V30 5 1 4 6
M  V30 6 1 4 7
M  V30 7 2 5 8
M  V30 8 2 6 9
M  V30 9 1 7 10
M  V30 10 1 9 11
M  V30 11 1 10 12 CFG=1
M  V30 12 1 10 13
M  V30 13 1 11 14
M  V30 14 1 8 9
M  V30 END BOND
M  V30 BEGIN COLLECTION
M  V30 MDLV30/STERAC1 ATOMS=(1 10)
M  V30 END COLLECTION
M  V30 END CTAB
M  END
>  <SMILES>
COC1=CC(CC(C)N)=C(OC)C=C1

>  <INCHI_IDENTIFIER>
InChI=1S/C11H17NO2/c1-8(12)6-9-7-10(13-2)4-5-11(9)14-3/h4-5,7-8H,6,12H2,1-3H3

>  <INCHI_KEY>
LATVFYDIBMDBSY-UHFFFAOYSA-N

>  <FORMULA>
C11H17NO2

>  <MOLECULAR_WEIGHT>
195.2582

>  <DRUGBANK_ID>
DB01465

>  <DRUG_GROUPS>
experimental; illicit

>  <GENERIC_NAME>
2,5-Dimethoxyamphetamine

>  <SYNONYMS>


$$$$
Compound 26
Actelion Java MolfileCreator 2.0

  0  0  0  0  0  0              0 V3000
M  V30 BEGIN CTAB
M  V30 COUNTS 23 27 0 0 0
M  V30 BEGIN ATOM
M  V30 1 O 0.0 0.0 0.0 0
M  V30 2 C 0.9045 1.4123 0.0 0
M  V30 3 C 0.9045 -1.4758 0.0 0 CFG=2
M  V30 4 C 0.8569 2.9041 0.0 0
M  V30 5 C 2.1106 0.7458 0.0 0
M  V30 6 C 2.1106 -0.7141 0.0 0 CFG=2
M  V30 7 C 0.8569 -2.8723 0.0 0 CFG=1
M  V30 8 O -0.5078 3.6976 0.0 0
M  V30 9 C 2.063 3.6658 0.0 0
M  V30 10 C 3.3167 1.5076 0.0 0
M  V30 11 C 3.3167 -1.3806 0.0 0 CFG=1
M  V30 12 C 2.8882 0.3967 0.0 0
M  V30 13 O -0.5078 -3.5706 0.0 0
M  V30 14 C 2.063 -3.5389 0.0 0
M  V30 15 C -0.5554 5.2687 0.0 0
M  V30 16 C 3.2691 2.9993 0.0 0
M  V30 17 C 4.5228 0.841 0.0 0
M  V30 18 C 3.2691 -2.7771 0.0 0
M  V30 19 C 4.5228 -0.6189 0.0 0 CFG=1
M  V30 20 C 4.8878 0.4443 0.0 0
M  V30 21 C -1.9202 6.0621 0.0 0
M  V30 22 N 5.7289 -1.2854 0.0 0
M  V30 23 C 6.6969 -2.3645 0.0 0
M  V30 END ATOM
M  V30 BEGIN BOND
M  V30 1 1 1 2
M  V30 2 1 3 1 CFG=3
M  V30 3 2 2 4
M  V30 4 1 2 5
M  V30 5 1 3 6
M  V30 6 1 3 7
M  V30 7 1 4 8
M  V30 8 1 4 9
M  V30 9 2 5 10
M  V30 10 1 6 11
M  V30 11 1 6 12 CFG=1
M  V30 12 1 7 13 CFG=3
M  V30 13 1 7 14
M  V30 14 1 8 15
M  V30 15 2 9 16
M  V30 16 1 10 17
M  V30 17 1 11 18 CFG=3
M  V30 18 1 11 19
M  V30 19 1 12 20
M  V30 20 1 15 21
M  V30 21 1 19 22 CFG=1
M  V30 22 1 22 23
M  V30 23 1 5 6
M  V30 24 1 10 16
M  V30 25 2 14 18
M  V30 26 1 17 19
M  V30 27 1 20 22
M  V30 END BOND
M  V30 BEGIN COLLECTION
M  V30 MDLV30/STEABS ATOMS=(5 3 6 7 11 19)
M  V30 END COLLECTION
M  V30 END CTAB
M  END
>  <SMILES>
[H][C@@]12OC3=C(OCC)C=CC4=C3[C@@]11CCN(C)[C@]([H])(C4)[C@]1([H])C=C[C@@H]2O

>  <INCHI_IDENTIFIER>
InChI=1S/C19H23NO3/c1-3-22-15-7-4-11-10-13-12-5-6-14(21)18-19(12,8-9-20(13)2)16(11)17(15)23-18/h4-7,12-14,18,21H,3,8-10H2,1-2H3/t12-,13+,14-,18-,19-/m0/s1

>  <INCHI_KEY>
OGDVEMNWJVYAJL-LEPYJNQMSA-N

>  <FORMULA>
C19H23NO3

>  <MOLECULAR_WEIGHT>
313.3908

>  <DRUGBANK_ID>
DB01466

>  <DRUG_GROUPS>
experimental; illicit

>  <GENERIC_NAME>
Ethylmorphine

>  <SYNONYMS>
3-ethoxymorphine; 3-O-Ethylmorphine; Dionine; Ethylmorphine

$$$$
Compound 27
Actelion Java MolfileCreator 2.0

  0  0  0  0  0  0              0 V3000
M  V30 BEGIN CTAB
M  V30 COUNTS 16 16 0 0 0
M  V30 BEGIN ATOM
M  V30 1 O 0.0 0.0 0.0 0
M  V30 2 C 1.2775 -0.73 0.0 0
M  V30 3 C -1.3505 -0.73 0.0 0
M  V30 4 C 2.555 0.0486 0.0 0
M  V30 5 C 1.241 -2.2143 0.0 0
M  V30 6 C 3.8325 -0.6813 0.0 0
M  V30 7 C 2.5185 1.606 0.0 0
M  V30 8 C 2.5185 -2.9443 0.0 0
M  V30 9 C 3.796 -2.1656 0.0 0
M  V30 10 C 3.796 2.3968 0.0 0 CFG=1
M  V30 11 C 2.482 -4.4287 0.0 0
M  V30 12 O 5.0735 -2.8957 0.0 0
M  V30 13 N 3.7595 3.9542 0.0 0
M  V30 14 C 5.0735 1.6546 0.0 0
M  V30 15 C 1.1315 -5.1708 0.0 0
M  V30 16 C 6.351 -2.117 0.0 0
M  V30 END ATOM
M  V30 BEGIN BOND
M  V30 1 1 1 2
M  V30 2 1 1 3
M  V30 3 2 2 4
M  V30 4 1 2 5
M  V30 5 1 4 6
M  V30 6 1 4 7
M  V30 7 2 5 8
M  V30 8 2 6 9
M  V30 9 1 7 10
M  V30 10 1 8 11
M  V30 11 1 9 12
M  V30 12 1 10 13 CFG=1
M  V30 13 1 10 14
M  V30 14 1 11 15
M  V30 15 1 12 16
M  V30 16 1 8 9
M  V30 END BOND
M  V30 BEGIN COLLECTION
M  V30 MDLV30/STERAC1 ATOMS=(1 10)
M  V30 END COLLECTION
M  V30 END CTAB
M  END
>  <SMILES>
CCC1=CC(OC)=C(CC(C)N)C=C1OC

>  <INCHI_IDENTIFIER>
InChI=1S/C13H21NO2/c1-5-10-7-13(16-4)11(6-9(2)14)8-12(10)15-3/h7-9H,5-6,14H2,1-4H3

>  <INCHI_KEY>
HXJKWPGVENNMCC-UHFFFAOYSA-N

>  <FORMULA>
C13H21NO2

>  <MOLECULAR_WEIGHT>
223.3113

>  <DRUGBANK_ID>
DB01467

>  <DRUG_GROUPS>
experimental; illicit

>  <GENERIC_NAME>
2,5-Dimethoxy-4-ethylamphetamine

>  <SYNONYMS>


$$$$
Compound 28
Actelion Java MolfileCreator 2.0

  0  0  0  0  0  0              0 V3000
M  V30 BEGIN CTAB
M  V30 COUNTS 18 19 0 0 0
M  V30 BEGIN ATOM
M  V30 1 S 0.0 0.0 0.0 0
M  V30 2 C -1.397 0.6567 0.0 0
M  V30 3 C 0.9552 1.1343 0.0 0
M  V30 4 C -2.7225 -0.0597 0.0 0
M  V30 5 C -1.2776 2.1732 0.0 0
M  V30 6 C 0.191 2.4598 0.0 0
M  V30 7 C -2.7583 -1.5164 0.0 0
M  V30 8 C -4.0479 0.7045 0.0 0
M  V30 9 S -4.0001 -2.3523 0.0 0
M  V30 10 C -1.5881 -2.3523 0.0 0
M  V30 11 C -4.0837 2.2329 0.0 0 CFG=1
M  V30 12 C -3.5703 -3.7374 0.0 0
M  V30 13 C -2.0896 -3.7374 0.0 0
M  V30 14 N -5.4092 2.9971 0.0 0
M  V30 15 C -2.8299 2.9971 0.0 0
M  V30 16 C -5.445 4.5255 0.0 0
M  V30 17 C -6.7346 2.2807 0.0 0
M  V30 18 C -6.7704 5.2898 0.0 0
M  V30 END ATOM
M  V30 BEGIN BOND
M  V30 1 1 1 2
M  V30 2 1 1 3
M  V30 3 1 2 4
M  V30 4 2 2 5
M  V30 5 2 3 6
M  V30 6 1 4 7
M  V30 7 2 4 8
M  V30 8 1 7 9
M  V30 9 2 7 10
M  V30 10 1 8 11
M  V30 11 1 9 12
M  V30 12 1 10 13
M  V30 13 1 11 14 CFG=1
M  V30 14 1 11 15
M  V30 15 1 14 16
M  V30 16 1 14 17
M  V30 17 1 16 18
M  V30 18 1 5 6
M  V30 19 2 12 13
M  V30 END BOND
M  V30 BEGIN COLLECTION
M  V30 MDLV30/STERAC1 ATOMS=(1 11)
M  V30 END COLLECTION
M  V30 END CTAB
M  END
>  <SMILES>
CCN(C)C(C)C=C(C1=CC=CS1)C1=CC=CS1

>  <INCHI_IDENTIFIER>
InChI=1S/C15H19NS2/c1-4-16(3)12(2)11-13(14-7-5-9-17-14)15-8-6-10-18-15/h5-12H,4H2,1-3H3

>  <INCHI_KEY>
MORSAEFGQPDBKM-UHFFFAOYSA-N

>  <FORMULA>
C15H19NS2

>  <MOLECULAR_WEIGHT>
277.448

>  <DRUGBANK_ID>
DB01468

>  <DRUG_GROUPS>
experimental; illicit

>  <GENERIC_NAME>
Ethylmethylthiambutene

>  <SYNONYMS>


$$$$
Compound 29
Actelion Java MolfileCreator 2.0

  0  0  0  0  0  0              0 V3000
M  V30 BEGIN CTAB
M  V30 COUNTS 33 38 0 0 0
M  V30 BEGIN ATOM
M  V30 1 O 0.0 0.0 0.0 0
M  V30 2 C 1.0498 -0.9218 0.0 0
M  V30 3 O 2.3942 -0.4225 0.0 0
M  V30 4 C 0.7041 -2.3174 0.0 0
M  V30 5 C 2.6631 1.0498 0.0 0
M  V30 6 C 4.0202 1.626 0.0 0
M  V30 7 C 1.562 2.1125 0.0 0
M  V30 8 O 5.1853 0.8194 0.0 0
M  V30 9 C 4.5068 3.1112 0.0 0
M  V30 10 C 1.8693 3.6105 0.0 0
M  V30 11 C 6.2096 1.8821 0.0 0 CFG=2
M  V30 12 C 3.2776 4.0842 0.0 0
M  V30 13 C 5.9791 3.5593 0.0 0 CFG=1
M  V30 14 C 7.4387 0.909 0.0 0 CFG=1
M  V30 15 C 4.033 5.403 0.0 0
M  V30 16 C 7.1315 4.5068 0.0 0 CFG=2
M  V30 17 C 6.5041 5.1981 0.0 0
M  V30 18 O 7.4003 -0.5121 0.0 0
M  V30 19 C 7.6948 2.1509 0.0 0
M  V30 20 C 8.7063 2.0101 0.0 0 CFG=2
M  V30 21 C 5.5182 5.3646 0.0 0 CFG=2
M  V30 22 C 7.093 3.2648 0.0 0
M  V30 23 C 8.4502 3.6233 0.0 0
M  V30 24 C 6.8242 6.7089 0.0 0
M  V30 25 C 6.1072 -1.2163 0.0 0
M  V30 26 C 10.0378 1.5236 0.0 0 CFG=2
M  V30 27 N 5.3262 6.9266 0.0 0
M  V30 28 O 10.5244 2.9319 0.0 0
M  V30 29 C 11.3694 1.037 0.0 0
M  V30 30 C 9.4745 0.192 0.0 0
M  V30 31 C 4.2891 8.0149 0.0 0
M  V30 32 C 12.4577 1.9973 0.0 0
M  V30 33 C 13.7892 1.5108 0.0 0
M  V30 END ATOM
M  V30 BEGIN BOND
M  V30 1 2 1 2
M  V30 2 1 2 3
M  V30 3 1 2 4
M  V30 4 1 3 5
M  V30 5 2 5 6
M  V30 6 1 5 7
M  V30 7 1 6 8
M  V30 8 1 6 9
M  V30 9 2 7 10
M  V30 10 1 11 8 CFG=3
M  V30 11 2 9 12
M  V30 12 1 9 13
M  V30 13 1 11 14
M  V30 14 1 12 15
M  V30 15 1 13 16
M  V30 16 1 13 17 CFG=1
M  V30 17 1 14 18 CFG=3
M  V30 18 1 14 19
M  V30 19 1 14 20
M  V30 20 1 15 21
M  V30 21 1 16 22 CFG=3
M  V30 22 1 16 23
M  V30 23 1 17 24
M  V30 24 1 18 25
M  V30 25 1 26 20 CFG=3
M  V30 26 1 21 27 CFG=1
M  V30 27 1 26 28
M  V30 28 1 26 29
M  V30 29 1 26 30
M  V30 30 1 27 31
M  V30 31 1 29 32
M  V30 32 1 32 33
M  V30 33 1 10 12
M  V30 34 1 11 13
M  V30 35 1 16 21
M  V30 36 2 19 22
M  V30 37 1 20 23 CFG=3
M  V30 38 1 24 27
M  V30 END BOND
M  V30 BEGIN COLLECTION
M  V30 MDLV30/STERAC1 ATOMS=(7 11 13 14 16 20 21 26)
M  V30 END COLLECTION
M  V30 END CTAB
M  END
>  <SMILES>
[H][C@@]12OC3=C(OC(C)=O)C=CC4=C3[C@@]11CCN(C)[C@]([H])(C4)[C@@]11C[C@]([H])([C@](C)(O)CCC)[C@]2(OC)C=C1

>  <INCHI_IDENTIFIER>
InChI=1S/C27H35NO5/c1-6-9-24(3,30)19-15-25-10-11-27(19,31-5)23-26(25)12-13-28(4)20(25)14-17-7-8-18(32-16(2)29)22(33-23)21(17)26/h7-8,10-11,19-20,23,30H,6,9,12-15H2,1-5H3/t19-,20-,23-,24-,25-,26+,27-/m1/s1

>  <INCHI_KEY>
LFYBMMHFJIAKFE-PMEKXCSPSA-N

>  <FORMULA>
C27H35NO5

>  <MOLECULAR_WEIGHT>
453.579

>  <DRUGBANK_ID>
DB01469

>  <DRUG_GROUPS>
experimental; illicit

>  <GENERIC_NAME>
Acetorphine

>  <SYNONYMS>
7alpha-etorphine 3-acetate; Acetorfina; Acetylpropylorvinol

$$$$
Compound 30
Actelion Java MolfileCreator 2.0

  0  0  0  0  0  0              0 V3000
M  V30 BEGIN CTAB
M  V30 COUNTS 25 27 0 0 0
M  V30 BEGIN ATOM
M  V30 1 S 0.0 0.0 0.0 0
M  V30 2 C 1.1747 0.911 0.0 0
M  V30 3 C 0.4315 -1.3905 0.0 0
M  V30 4 C 2.3495 0.0719 0.0 0
M  V30 5 C 1.1388 2.4454 0.0 0
M  V30 6 C 1.894 -1.3545 0.0 0
M  V30 7 C 2.3975 3.2126 0.0 0 CFG=1
M  V30 8 N 2.3615 4.747 0.0 0
M  V30 9 C 3.6562 2.4934 0.0 0
M  V30 10 C 1.0309 5.5142 0.0 0
M  V30 11 C 3.6202 5.5142 0.0 0
M  V30 12 C 0.9949 7.0486 0.0 0
M  V30 13 C 3.5842 7.0486 0.0 0
M  V30 14 C 2.2536 7.8278 0.0 0
M  V30 15 N 2.2177 9.3623 0.0 0
M  V30 16 C 3.4763 10.1414 0.0 0
M  V30 17 C 0.887 10.1414 0.0 0
M  V30 18 C 3.4404 11.6759 0.0 0
M  V30 19 C 4.735 9.4222 0.0 0
M  V30 20 O -0.4435 9.4222 0.0 0
M  V30 21 C 0.8511 11.6759 0.0 0
M  V30 22 C 4.6991 12.4431 0.0 0
M  V30 23 C 5.9937 10.1894 0.0 0
M  V30 24 C -0.4795 12.4431 0.0 0
M  V30 25 C 5.9578 11.7238 0.0 0
M  V30 END ATOM
M  V30 BEGIN BOND
M  V30 1 1 1 2
M  V30 2 1 1 3
M  V30 3 2 2 4
M  V30 4 1 2 5
M  V30 5 2 3 6
M  V30 6 1 5 7
M  V30 7 1 7 8 CFG=1
M  V30 8 1 7 9
M  V30 9 1 8 10
M  V30 10 1 8 11
M  V30 11 1 10 12
M  V30 12 1 11 13
M  V30 13 1 12 14
M  V30 14 1 14 15
M  V30 15 1 15 16
M  V30 16 1 15 17
M  V30 17 2 16 18
M  V30 18 1 16 19
M  V30 19 2 17 20
M  V30 20 1 17 21
M  V30 21 1 18 22
M  V30 22 2 19 23
M  V30 23 1 21 24
M  V30 24 2 22 25
M  V30 25 1 4 6
M  V30 26 1 13 14
M  V30 27 1 23 25
M  V30 END BOND
M  V30 BEGIN COLLECTION
M  V30 MDLV30/STERAC1 ATOMS=(1 7)
M  V30 END COLLECTION
M  V30 END CTAB
M  END
>  <SMILES>
CCC(=O)N(C1CCN(CC1)C(C)CC1=CC=CS1)C1=CC=CC=C1

>  <INCHI_IDENTIFIER>
InChI=1S/C21H28N2OS/c1-3-21(24)23(18-8-5-4-6-9-18)19-11-13-22(14-12-19)17(2)16-20-10-7-15-25-20/h4-10,15,17,19H,3,11-14,16H2,1-2H3

>  <INCHI_KEY>
YPOXDUYRRSUFFG-UHFFFAOYSA-N

>  <FORMULA>
C21H28N2OS

>  <MOLECULAR_WEIGHT>
356.525

>  <DRUGBANK_ID>
DB01470

>  <DRUG_GROUPS>
illicit

>  <GENERIC_NAME>
α-methylthiofentanyl

>  <SYNONYMS>
alpha-methylthiofentanyl

$$$$
Compound 31
Actelion Java MolfileCreator 2.0

  0  0  0  0  0  0              0 V3000
M  V30 BEGIN CTAB
M  V30 COUNTS 23 26 0 0 0
M  V30 BEGIN ATOM
M  V30 1 O 0.0 0.0 0.0 0
M  V30 2 C 1.2387 0.779 0.0 0
M  V30 3 C 2.5796 0.0127 0.0 0
M  V30 4 C 1.2132 2.4136 0.0 0
M  V30 5 C 3.9205 0.8428 0.0 0
M  V30 6 C 2.5669 3.2309 0.0 0
M  V30 7 C 3.895 2.4136 0.0 0 CFG=2
M  V30 8 C 5.2104 0.1021 0.0 0
M  V30 9 C 5.1976 3.2054 0.0 0 CFG=2
M  V30 10 C 3.8695 3.9205 0.0 0
M  V30 11 C 6.4874 0.9194 0.0 0 CFG=2
M  V30 12 C 6.4236 2.4902 0.0 0 CFG=1
M  V30 13 C 5.1593 4.7123 0.0 0
M  V30 14 C 7.7262 0.2298 0.0 0
M  V30 15 C 7.6496 3.282 0.0 0 CFG=1
M  V30 16 C 6.3853 5.5041 0.0 0
M  V30 17 C 7.6113 4.7889 0.0 0 CFG=2
M  V30 18 C 9.0033 2.8606 0.0 0
M  V30 19 C 8.9649 5.287 0.0 0 CFG=2
M  V30 20 C 7.5729 6.2959 0.0 0
M  V30 21 C 9.8078 4.0738 0.0 0
M  V30 22 O 10.1143 6.1809 0.0 0
M  V30 23 C 8.4669 6.7173 0.0 0
M  V30 END ATOM
M  V30 BEGIN BOND
M  V30 1 2 1 2
M  V30 2 1 2 3
M  V30 3 1 2 4
M  V30 4 2 3 5
M  V30 5 1 4 6
M  V30 6 1 5 7
M  V30 7 1 5 8
M  V30 8 1 7 9
M  V30 9 1 7 10 CFG=1
M  V30 10 1 8 11
M  V30 11 1 12 9 CFG=3
M  V30 12 1 9 13 CFG=1
M  V30 13 1 11 14 CFG=3
M  V30 14 1 12 15
M  V30 15 1 13 16
M  V30 16 1 15 17
M  V30 17 1 15 18 CFG=1
M  V30 18 1 17 19
M  V30 19 1 17 20 CFG=1
M  V30 20 1 18 21
M  V30 21 1 19 22 CFG=1
M  V30 22 1 19 23
M  V30 23 1 6 7
M  V30 24 1 11 12
M  V30 25 1 16 17
M  V30 26 1 19 21
M  V30 END BOND
M  V30 BEGIN COLLECTION
M  V30 MDLV30/STEABS ATOMS=(7 7 9 11 12 15 17 19)
M  V30 END COLLECTION
M  V30 END CTAB
M  END
>  <SMILES>
[H][C@@]12CC[C@](C)(O)[C@@]1(C)CC[C@@]1([H])[C@@]2([H])[C@H](C)CC2=CC(=O)CC[C@]12C

>  <INCHI_IDENTIFIER>
InChI=1S/C21H32O2/c1-13-11-14-12-15(22)5-8-19(14,2)16-6-9-20(3)17(18(13)16)7-10-21(20,4)23/h12-13,16-18,23H,5-11H2,1-4H3/t13-,16+,17+,18-,19+,20+,21+/m1/s1

>  <INCHI_KEY>
IVFYLRMMHVYGJH-VLOLGRDOSA-N

>  <FORMULA>
C21H32O2

>  <MOLECULAR_WEIGHT>
316.4776

>  <DRUGBANK_ID>
DB01471

>  <DRUG_GROUPS>
experimental; illicit

>  <GENERIC_NAME>
Bolasterone

>  <SYNONYMS>


$$$$
Compound 32
Actelion Java MolfileCreator 2.0

  0  0  0  0  0  0              0 V3000
M  V30 BEGIN CTAB
M  V30 COUNTS 12 12 0 0 0
M  V30 BEGIN ATOM
M  V30 1 O 0.0 0.0 0.0 0
M  V30 2 C -0.0356 1.5208 0.0 0
M  V30 3 C -1.3188 -0.7247 0.0 0
M  V30 4 C 1.2119 2.2931 0.0 0
M  V30 5 C -1.3544 2.2931 0.0 0
M  V30 6 C 1.1762 3.8139 0.0 0
M  V30 7 C -1.3901 3.8139 0.0 0
M  V30 8 C -0.1425 4.5743 0.0 0
M  V30 9 C -0.1782 6.0951 0.0 0
M  V30 10 C 1.0693 6.8674 0.0 0 CFG=1
M  V30 11 N 1.0336 8.3882 0.0 0
M  V30 12 C 2.3168 6.1426 0.0 0
M  V30 END ATOM
M  V30 BEGIN BOND
M  V30 1 1 1 2
M  V30 2 1 1 3
M  V30 3 2 2 4
M  V30 4 1 2 5
M  V30 5 1 4 6
M  V30 6 2 5 7
M  V30 7 2 6 8
M  V30 8 1 8 9
M  V30 9 1 9 10
M  V30 10 1 10 11 CFG=1
M  V30 11 1 10 12
M  V30 12 1 7 8
M  V30 END BOND
M  V30 BEGIN COLLECTION
M  V30 MDLV30/STERAC1 ATOMS=(1 10)
M  V30 END COLLECTION
M  V30 END CTAB
M  END
>  <SMILES>
COC1=CC=C(CC(C)N)C=C1

>  <INCHI_IDENTIFIER>
InChI=1S/C10H15NO/c1-8(11)7-9-3-5-10(12-2)6-4-9/h3-6,8H,7,11H2,1-2H3

>  <INCHI_KEY>
NEGYEDYHPHMHGK-UHFFFAOYSA-N

>  <FORMULA>
C10H15NO

>  <MOLECULAR_WEIGHT>
165.2322

>  <DRUGBANK_ID>
DB01472

>  <DRUG_GROUPS>
experimental; illicit

>  <GENERIC_NAME>
4-Methoxyamphetamine

>  <SYNONYMS>
(2RS)-1-(4-methoxyphenyl)propan-2-amine; 4-methoxyamfetamine; D,L-p-methoxyamphetamine; Formoterol fumarate related compound G; P-methoxyamfetamine; P-methoxyamphetamine; Paramethoxyamphetamine

$$$$
Compound 33
Actelion Java MolfileCreator 2.0

  0  0  0  0  0  0              0 V3000
M  V30 BEGIN CTAB
M  V30 COUNTS 19 20 0 0 0
M  V30 BEGIN ATOM
M  V30 1 O 0.0 0.0 0.0 0
M  V30 2 C -1.2638 0.8584 0.0 0
M  V30 3 O -2.6351 0.2265 0.0 0
M  V30 4 C -1.1923 2.3847 0.0 0
M  V30 5 C -3.899 1.085 0.0 0 CFG=1
M  V30 6 C 0.1073 3.0882 0.0 0
M  V30 7 C -3.9347 -0.3696 0.0 0
M  V30 8 C -5.4252 1.1685 0.0 0 CFG=1
M  V30 9 C -3.1478 2.3847 0.0 0
M  V30 10 C -2.6827 -1.085 0.0 0
M  V30 11 C -5.2582 -1.085 0.0 0
M  V30 12 C -6.1764 2.5158 0.0 0
M  V30 13 C -6.236 -0.0596 0.0 0
M  V30 14 C -3.899 3.732 0.0 0
M  V30 15 C -2.7185 -2.5397 0.0 0
M  V30 16 C -5.294 -2.5397 0.0 0
M  V30 17 N -5.4252 3.8155 0.0 0
M  V30 18 C -4.042 -3.267 0.0 0
M  V30 19 C -6.1764 5.1628 0.0 0
M  V30 END ATOM
M  V30 BEGIN BOND
M  V30 1 2 1 2
M  V30 2 1 2 3
M  V30 3 1 2 4
M  V30 4 1 5 3 CFG=1
M  V30 5 1 4 6
M  V30 6 1 5 7
M  V30 7 1 5 8
M  V30 8 1 5 9
M  V30 9 2 7 10
M  V30 10 1 7 11
M  V30 11 1 8 12
M  V30 12 1 8 13 CFG=3
M  V30 13 1 9 14
M  V30 14 1 10 15
M  V30 15 2 11 16
M  V30 16 1 12 17
M  V30 17 2 15 18
M  V30 18 1 17 19
M  V30 19 1 14 17
M  V30 20 1 16 18
M  V30 END BOND
M  V30 BEGIN COLLECTION
M  V30 MDLV30/STEABS ATOMS=(2 5 8)
M  V30 END COLLECTION
M  V30 END CTAB
M  END
>  <SMILES>
[H][C@@]1(C)CN(C)CC[C@]1(OC(=O)CC)C1=CC=CC=C1

>  <INCHI_IDENTIFIER>
InChI=1S/C16H23NO2/c1-4-15(18)19-16(14-8-6-5-7-9-14)10-11-17(3)12-13(16)2/h5-9,13H,4,10-12H2,1-3H3/t13-,16-/m1/s1

>  <INCHI_KEY>
UVAZQQHAVMNMHE-CZUORRHYSA-N

>  <FORMULA>
C16H23NO2

>  <MOLECULAR_WEIGHT>
261.365

>  <DRUGBANK_ID>
DB01473

>  <DRUG_GROUPS>
experimental; illicit

>  <GENERIC_NAME>
Betaprodine

>  <SYNONYMS>
beta-Prodine; Betaprodina; Betaprodinum

$$$$
Compound 34
Actelion Java MolfileCreator 2.0

  0  0  0  0  0  0              0 V3000
M  V30 BEGIN CTAB
M  V30 COUNTS 22 25 0 0 0
M  V30 BEGIN ATOM
M  V30 1 O 0.0 0.0 0.0 0
M  V30 2 C 0.1923 1.5384 0.0 0 CFG=1
M  V30 3 C 1.6706 1.5264 0.0 0 CFG=1
M  V30 4 C -0.2644 3.0288 0.0 0
M  V30 5 C -1.238 0.9855 0.0 0
M  V30 6 C 2.1514 2.9808 0.0 0 CFG=2
M  V30 7 C 2.6082 0.4086 0.0 0
M  V30 8 C 0.9735 0.2043 0.0 0
M  V30 9 C 0.9495 3.9063 0.0 0
M  V30 10 C 3.6058 3.2813 0.0 0 CFG=2
M  V30 11 C 4.0625 0.7091 0.0 0
M  V30 12 C 4.5433 2.1634 0.0 0 CFG=1
M  V30 13 C 4.0866 4.7476 0.0 0
M  V30 14 C 5.9976 2.4639 0.0 0 CFG=1
M  V30 15 C 5.5409 5.0481 0.0 0
M  V30 16 C 6.4784 3.9183 0.0 0
M  V30 17 C 6.9352 1.3461 0.0 0
M  V30 18 C 5.4447 1.0697 0.0 0
M  V30 19 C 7.9328 4.2188 0.0 0
M  V30 20 C 8.3895 1.6466 0.0 0
M  V30 21 C 8.8703 3.101 0.0 0 CFG=1
M  V30 22 O 10.3246 3.4014 0.0 0
M  V30 END ATOM
M  V30 BEGIN BOND
M  V30 1 1 2 1 CFG=3
M  V30 2 1 2 3
M  V30 3 1 2 4
M  V30 4 1 2 5
M  V30 5 1 3 6
M  V30 6 1 3 7
M  V30 7 1 3 8 CFG=3
M  V30 8 1 4 9
M  V30 9 1 6 10
M  V30 10 1 7 11
M  V30 11 1 10 12
M  V30 12 1 10 13 CFG=1
M  V30 13 1 12 14
M  V30 14 1 13 15
M  V30 15 1 14 16
M  V30 16 1 14 17
M  V30 17 1 14 18 CFG=3
M  V30 18 2 16 19
M  V30 19 1 17 20
M  V30 20 1 19 21
M  V30 21 1 21 22 CFG=3
M  V30 22 1 6 9 CFG=3
M  V30 23 1 12 11 CFG=3
M  V30 24 1 15 16
M  V30 25 1 20 21
M  V30 END BOND
M  V30 BEGIN COLLECTION
M  V30 MDLV30/STERAC1 ATOMS=(7 2 3 6 10 12 14 21)
M  V30 END COLLECTION
M  V30 END CTAB
M  END
>  <SMILES>
C[C@]1(O)CC[C@H]2[C@@H]3CCC4=C[C@@H](O)CC[C@]4(C)[C@H]3CC[C@]12C

>  <INCHI_IDENTIFIER>
InChI=1S/C20H32O2/c1-18-9-6-14(21)12-13(18)4-5-15-16(18)7-10-19(2)17(15)8-11-20(19,3)22/h12,14-17,21-22H,4-11H2,1-3H3/t14-,15+,16-,17-,18-,19-,20-/m0/s1

>  <INCHI_KEY>
BNUOCVTVOYWNJC-DTMQFJJTSA-N

>  <FORMULA>
C20H32O2

>  <MOLECULAR_WEIGHT>
304.474

>  <DRUGBANK_ID>
DB01474

>  <DRUG_GROUPS>
experimental; illicit

>  <GENERIC_NAME>
17alpha-methyl-3beta,17beta-dihydroxyandrost-4-ene

>  <SYNONYMS>
17-Methylandrost-4-ene-3beta,17beta-diol

$$$$
Compound 35
Actelion Java MolfileCreator 2.0

  0  0  0  0  0  0              0 V3000
M  V30 BEGIN CTAB
M  V30 COUNTS 26 28 0 0 0
M  V30 BEGIN ATOM
M  V30 1 O 0.0 0.0 0.0 0
M  V30 2 C -0.7659 -1.2565 0.0 0
M  V30 3 O -0.0478 -2.5131 0.0 0
M  V30 4 C -2.2977 -1.2206 0.0 0
M  V30 5 C 1.4121 -2.4772 0.0 0
M  V30 6 C -2.3336 0.3111 0.0 0
M  V30 7 C -2.3336 -2.6806 0.0 0
M  V30 8 C -3.8295 -1.1847 0.0 0
M  V30 9 C 2.1301 -3.7337 0.0 0
M  V30 10 C -3.6619 1.089 0.0 0
M  V30 11 C -1.077 1.089 0.0 0
M  V30 12 C -1.077 -3.3986 0.0 0
M  V30 13 C -3.6619 -3.3986 0.0 0
M  V30 14 C -4.6073 0.1436 0.0 0
M  V30 15 C -3.6978 2.6208 0.0 0
M  V30 16 C -1.1129 2.6208 0.0 0
M  V30 17 C -1.1129 -4.8586 0.0 0
M  V30 18 C -3.6978 -4.8586 0.0 0
M  V30 19 N -6.1391 0.1795 0.0 0
M  V30 20 C -2.4413 3.3986 0.0 0
M  V30 21 C -2.4413 -5.5886 0.0 0
M  V30 22 C -6.917 1.5078 0.0 0
M  V30 23 C -6.917 -1.077 0.0 0
M  V30 24 C -8.4488 1.5437 0.0 0
M  V30 25 C -8.4488 -1.0411 0.0 0
M  V30 26 O -9.2267 0.2872 0.0 0
M  V30 END ATOM
M  V30 BEGIN BOND
M  V30 1 2 1 2
M  V30 2 1 2 3
M  V30 3 1 2 4
M  V30 4 1 3 5
M  V30 5 1 4 6
M  V30 6 1 4 7
M  V30 7 1 4 8
M  V30 8 1 5 9
M  V30 9 2 6 10
M  V30 10 1 6 11
M  V30 11 2 7 12
M  V30 12 1 7 13
M  V30 13 1 8 14
M  V30 14 1 10 15
M  V30 15 2 11 16
M  V30 16 1 12 17
M  V30 17 2 13 18
M  V30 18 1 14 19
M  V30 19 2 15 20
M  V30 20 2 17 21
M  V30 21 1 19 22
M  V30 22 1 19 23
M  V30 23 1 22 24
M  V30 24 1 23 25
M  V30 25 1 24 26
M  V30 26 1 16 20
M  V30 27 1 18 21
M  V30 28 1 25 26
M  V30 END BOND
M  V30 END CTAB
M  END
>  <SMILES>
CCOC(=O)C(CCN1CCOCC1)(C1=CC=CC=C1)C1=CC=CC=C1

>  <INCHI_IDENTIFIER>
InChI=1S/C22H27NO3/c1-2-26-21(24)22(19-9-5-3-6-10-19,20-11-7-4-8-12-20)13-14-23-15-17-25-18-16-23/h3-12H,2,13-18H2,1H3

>  <INCHI_KEY>
LQGIXNQCOXNCRP-UHFFFAOYSA-N

>  <FORMULA>
C22H27NO3

>  <MOLECULAR_WEIGHT>
353.4547

>  <DRUGBANK_ID>
DB01475

>  <DRUG_GROUPS>
experimental; illicit

>  <GENERIC_NAME>
Dioxaphetyl butyrate

>  <SYNONYMS>


$$$$
Compound 36
Actelion Java MolfileCreator 2.0

  0  0  0  0  0  0              0 V3000
M  V30 BEGIN CTAB
M  V30 COUNTS 23 26 0 0 0
M  V30 BEGIN ATOM
M  V30 1 Br 0.0 0.0 0.0 0
M  V30 2 C 1.049 1.049 0.0 0
M  V30 3 C 2.5128 0.6343 0.0 0
M  V30 4 C 0.6587 2.6104 0.0 0
M  V30 5 C 3.5985 1.7443 0.0 0
M  V30 6 C 1.7687 3.6961 0.0 0
M  V30 7 C 3.2204 3.2448 0.0 0
M  V30 8 C 4.916 1.1222 0.0 0 CFG=2
M  V30 9 N 4.1109 4.4524 0.0 0
M  V30 10 O 5.0867 -0.3171 0.0 0
M  V30 11 N 6.2334 1.8175 0.0 0
M  V30 12 C 4.0499 -0.0731 0.0 0
M  V30 13 C 5.5747 4.489 0.0 0
M  V30 14 C 6.514 -0.5489 0.0 0
M  V30 15 C 6.5384 3.3179 0.0 0
M  V30 16 C 7.2215 0.7807 0.0 0
M  V30 17 C 4.672 -1.3906 0.0 0
M  V30 18 C 2.5128 0.0731 0.0 0
M  V30 19 O 6.1968 5.8796 0.0 0
M  V30 20 F 6.1358 -1.4638 0.0 0
M  V30 21 C 3.8059 -2.586 0.0 0
M  V30 22 C 1.6468 -1.1222 0.0 0
M  V30 23 C 2.2689 -2.4397 0.0 0
M  V30 END ATOM
M  V30 BEGIN BOND
M  V30 1 1 1 2
M  V30 2 2 2 3
M  V30 3 1 2 4
M  V30 4 1 3 5
M  V30 5 2 4 6
M  V30 6 2 5 7
M  V30 7 1 5 8
M  V30 8 1 7 9
M  V30 9 1 8 10
M  V30 10 1 8 11
M  V30 11 1 8 12 CFG=3
M  V30 12 1 9 13
M  V30 13 1 10 14
M  V30 14 1 11 15
M  V30 15 1 11 16
M  V30 16 2 12 17
M  V30 17 1 12 18
M  V30 18 2 13 19
M  V30 19 1 17 20
M  V30 20 1 17 21
M  V30 21 2 18 22
M  V30 22 2 21 23
M  V30 23 1 6 7
M  V30 24 1 13 15
M  V30 25 1 14 16
M  V30 26 1 22 23
M  V30 END BOND
M  V30 BEGIN COLLECTION
M  V30 MDLV30/STERAC1 ATOMS=(1 8)
M  V30 END COLLECTION
M  V30 END CTAB
M  END
>  <SMILES>
FC1=CC=CC=C1C12OCCN1CC(=O)NC1=C2C=C(Br)C=C1

>  <INCHI_IDENTIFIER>
InChI=1S/C17H14BrFN2O2/c18-11-5-6-15-13(9-11)17(12-3-1-2-4-14(12)19)21(7-8-23-17)10-16(22)20-15/h1-6,9H,7-8,10H2,(H,20,22)

>  <INCHI_KEY>
XDKCGKQHVBOOHC-UHFFFAOYSA-N

>  <FORMULA>
C17H14BrFN2O2

>  <MOLECULAR_WEIGHT>
377.208

>  <DRUGBANK_ID>
DB01476

>  <DRUG_GROUPS>
experimental; illicit

>  <GENERIC_NAME>
Haloxazolam

>  <SYNONYMS>
Haloxazolam; Haloxazolamum

$$$$
Compound 37
Actelion Java MolfileCreator 2.0

  0  0  0  0  0  0              0 V3000
M  V30 BEGIN CTAB
M  V30 COUNTS 24 27 0 0 0
M  V30 BEGIN ATOM
M  V30 1 Br 0.0 0.0 0.0 0 CHG=-1
M  V30 2 O 4.5805 0.1272 0.0 0
M  V30 3 C 5.4871 1.5427 0.0 0
M  V30 4 C 5.4871 -1.3518 0.0 0 CFG=2
M  V30 5 C 5.4393 3.0377 0.0 0
M  V30 6 C 6.6958 0.8747 0.0 0
M  V30 7 C 6.6958 -0.5884 0.0 0 CFG=2
M  V30 8 C 5.4393 -2.7515 0.0 0 CFG=1
M  V30 9 O 4.0715 3.833 0.0 0
M  V30 10 C 6.6481 3.8012 0.0 0
M  V30 11 C 7.9046 1.6381 0.0 0
M  V30 12 C 7.9046 -1.2564 0.0 0 CFG=1
M  V30 13 C 7.4751 0.5248 0.0 0
M  V30 14 O 4.0715 -3.4513 0.0 0
M  V30 15 C 6.6481 -3.4194 0.0 0
M  V30 16 C 4.0238 5.4075 0.0 0
M  V30 17 C 7.8568 3.1332 0.0 0
M  V30 18 C 9.1133 0.9701 0.0 0
M  V30 19 C 7.8568 -2.656 0.0 0
M  V30 20 C 9.1133 -0.493 0.0 0 CFG=1
M  V30 21 C 9.4791 0.5725 0.0 0
M  V30 22 N 10.3221 -1.161 0.0 0 CHG=1
M  V30 23 C 11.7376 -1.5586 0.0 0
M  V30 24 C 10.6084 -2.6083 0.0 0
M  V30 END ATOM
M  V30 BEGIN BOND
M  V30 1 1 2 3
M  V30 2 1 4 2 CFG=3
M  V30 3 2 3 5
M  V30 4 1 3 6
M  V30 5 1 4 7
M  V30 6 1 4 8
M  V30 7 1 5 9
M  V30 8 1 5 10
M  V30 9 2 6 11
M  V30 10 1 7 12
M  V30 11 1 7 13 CFG=1
M  V30 12 1 8 14 CFG=3
M  V30 13 1 8 15
M  V30 14 1 9 16
M  V30 15 2 10 17
M  V30 16 1 11 18
M  V30 17 1 12 19 CFG=3
M  V30 18 1 12 20
M  V30 19 1 13 21
M  V30 20 1 20 22 CFG=1
M  V30 21 1 22 23
M  V30 22 1 22 24
M  V30 23 1 6 7
M  V30 24 1 11 17
M  V30 25 2 15 19
M  V30 26 1 18 20
M  V30 27 1 21 22
M  V30 END BOND
M  V30 BEGIN COLLECTION
M  V30 MDLV30/STEABS ATOMS=(5 4 7 8 12 20)
M  V30 END COLLECTION
M  V30 END CTAB
M  END
>  <SMILES>
[Br-].[H][C@@]12OC3=C(OC)C=CC4=C3[C@@]11CC[N+](C)(C)[C@]([H])(C4)[C@]1([H])C=C[C@@H]2O

>  <INCHI_IDENTIFIER>
InChI=1S/C19H24NO3.BrH/c1-20(2)9-8-19-12-5-6-14(21)18(19)23-17-15(22-3)7-4-11(16(17)19)10-13(12)20;/h4-7,12-14,18,21H,8-10H2,1-3H3;1H/q+1;/p-1/t12-,13+,14-,18-,19-;/m0./s1

>  <INCHI_KEY>
KIKLDWULAZATJG-YZZSNFJZSA-M

>  <FORMULA>
C19H24BrNO3

>  <MOLECULAR_WEIGHT>
394.303

>  <DRUGBANK_ID>
DB01477

>  <DRUG_GROUPS>
experimental; illicit

>  <GENERIC_NAME>
Codeine methylbromide

>  <SYNONYMS>


$$$$
Compound 38
Actelion Java MolfileCreator 2.0

  0  0  0  0  0  0              0 V3000
M  V30 BEGIN CTAB
M  V30 COUNTS 18 19 0 0 0
M  V30 BEGIN ATOM
M  V30 1 O 0.0 0.0 0.0 0
M  V30 2 C 0.7228 1.3373 0.0 0
M  V30 3 O 2.1927 1.3734 0.0 0
M  V30 4 C -0.0481 2.6746 0.0 0
M  V30 5 C 2.9156 0.1084 0.0 0
M  V30 6 C -1.5903 2.7108 0.0 0
M  V30 7 C 3.6385 1.4457 0.0 0
M  V30 8 C 4.1806 -0.6144 0.0 0
M  V30 9 C 1.5782 -0.6144 0.0 0
M  V30 10 C 2.8553 2.7831 0.0 0
M  V30 11 C 5.1083 1.4819 0.0 0
M  V30 12 C 4.1445 -2.0843 0.0 0
M  V30 13 C 1.5421 -2.0843 0.0 0
M  V30 14 C 3.5782 4.1204 0.0 0
M  V30 15 C 5.8312 2.8192 0.0 0
M  V30 16 N 2.8072 -2.8072 0.0 0
M  V30 17 C 5.0481 4.1565 0.0 0
M  V30 18 C 2.771 -4.277 0.0 0
M  V30 END ATOM
M  V30 BEGIN BOND
M  V30 1 2 1 2
M  V30 2 1 2 3
M  V30 3 1 2 4
M  V30 4 1 3 5
M  V30 5 1 4 6
M  V30 6 1 5 7
M  V30 7 1 5 8
M  V30 8 1 5 9
M  V30 9 2 7 10
M  V30 10 1 7 11
M  V30 11 1 8 12
M  V30 12 1 9 13
M  V30 13 1 10 14
M  V30 14 2 11 15
M  V30 15 1 12 16
M  V30 16 2 14 17
M  V30 17 1 16 18
M  V30 18 1 13 16
M  V30 19 1 15 17
M  V30 END BOND
M  V30 END CTAB
M  END
>  <SMILES>
CCC(=O)OC1(CCN(C)CC1)C1=CC=CC=C1

>  <INCHI_IDENTIFIER>
InChI=1S/C15H21NO2/c1-3-14(17)18-15(9-11-16(2)12-10-15)13-7-5-4-6-8-13/h4-8H,3,9-12H2,1-2H3

>  <INCHI_KEY>
BCQMRZRAWHNSBF-UHFFFAOYSA-N

>  <FORMULA>
C15H21NO2

>  <MOLECULAR_WEIGHT>
247.3327

>  <DRUGBANK_ID>
DB01478

>  <DRUG_GROUPS>
experimental; illicit

>  <GENERIC_NAME>
Desmethylprodine

>  <SYNONYMS>
1-Methyl-4-phenyl-4-piperidinol propionate; 1-Methyl-4-phenyl-4-propionoxypiperidine; 3-Demethylprodine; MPPP

$$$$
Compound 39
Actelion Java MolfileCreator 2.0

  0  0  0  0  0  0              0 V3000
M  V30 BEGIN CTAB
M  V30 COUNTS 22 25 0 0 0
M  V30 BEGIN ATOM
M  V30 1 O 0.0 0.0 0.0 0
M  V30 2 C 0.1921 1.5372 0.0 0 CFG=2
M  V30 3 C 1.6694 1.5252 0.0 0 CFG=2
M  V30 4 C -0.2642 3.0265 0.0 0
M  V30 5 C -1.237 0.9848 0.0 0
M  V30 6 C 2.1498 2.9905 0.0 0 CFG=1
M  V30 7 C 2.6061 0.4083 0.0 0
M  V30 8 C 0.9728 0.2041 0.0 0
M  V30 9 C 0.9487 3.9032 0.0 0
M  V30 10 C 3.603 3.2907 0.0 0 CFG=1
M  V30 11 C 4.0594 0.7085 0.0 0
M  V30 12 C 4.5398 2.1738 0.0 0 CFG=2
M  V30 13 C 4.0834 4.7559 0.0 0
M  V30 14 C 5.993 2.474 0.0 0 CFG=2
M  V30 15 C 5.5366 5.0562 0.0 0
M  V30 16 C 6.4734 3.9393 0.0 0 CFG=1
M  V30 17 C 6.9298 1.3571 0.0 0
M  V30 18 C 5.4405 1.0809 0.0 0
M  V30 19 C 7.9266 4.2395 0.0 0
M  V30 20 C 8.383 1.6573 0.0 0
M  V30 21 C 8.8634 3.1226 0.0 0 CFG=1
M  V30 22 O 10.3166 3.4228 0.0 0
M  V30 END ATOM
M  V30 BEGIN BOND
M  V30 1 1 2 1 CFG=1
M  V30 2 1 2 3
M  V30 3 1 2 4
M  V30 4 1 2 5
M  V30 5 1 3 6
M  V30 6 1 3 7
M  V30 7 1 3 8 CFG=1
M  V30 8 1 4 9
M  V30 9 1 6 10
M  V30 10 1 7 11
M  V30 11 1 10 12
M  V30 12 1 10 13 CFG=3
M  V30 13 1 12 14
M  V30 14 1 13 15
M  V30 15 1 14 16
M  V30 16 1 14 17
M  V30 17 1 14 18 CFG=1
M  V30 18 1 16 19 CFG=1
M  V30 19 1 17 20
M  V30 20 1 19 21
M  V30 21 1 21 22 CFG=3
M  V30 22 1 6 9 CFG=1
M  V30 23 1 12 11 CFG=1
M  V30 24 1 15 16
M  V30 25 1 20 21
M  V30 END BOND
M  V30 BEGIN COLLECTION
M  V30 MDLV30/STEABS ATOMS=(8 2 3 6 10 12 14 16 21)
M  V30 END COLLECTION
M  V30 END CTAB
M  END
>  <SMILES>
C[C@]1(O)CC[C@H]2[C@@H]3CC[C@H]4C[C@H](O)CC[C@]4(C)[C@H]3CC[C@]12C

>  <INCHI_IDENTIFIER>
InChI=1S/C20H34O2/c1-18-9-6-14(21)12-13(18)4-5-15-16(18)7-10-19(2)17(15)8-11-20(19,3)22/h13-17,21-22H,4-12H2,1-3H3/t13-,14+,15+,16-,17-,18-,19-,20-/m0/s1

>  <INCHI_KEY>
QGKQXZFZOIQFBI-XSWYFRFISA-N

>  <FORMULA>
C20H34O2

>  <MOLECULAR_WEIGHT>
306.49

>  <DRUGBANK_ID>
DB01479

>  <DRUG_GROUPS>
experimental; illicit

>  <GENERIC_NAME>
BA-2664

>  <SYNONYMS>
17alpha-methyl-3alpha,17beta-dihydroxy-5alpha-androstane

$$$$
Compound 40
Actelion Java MolfileCreator 2.0

  0  0  0  0  0  0              0 V3000
M  V30 BEGIN CTAB
M  V30 COUNTS 31 37 0 0 0
M  V30 BEGIN ATOM
M  V30 1 O 0.0 0.0 0.0 0
M  V30 2 C -1.2314 0.8871 0.0 0
M  V30 3 C 1.0196 1.0593 0.0 0 CFG=1
M  V30 4 C -2.6615 0.3972 0.0 0
M  V30 5 C -0.7547 2.357 0.0 0
M  V30 6 C 2.2378 0.0926 0.0 0 CFG=1
M  V30 7 C 0.715 2.7542 0.0 0 CFG=2
M  V30 8 O -3.0058 -0.9798 0.0 0
M  V30 9 C -3.7606 1.4565 0.0 0
M  V30 10 C -1.9597 3.3236 0.0 0
M  V30 11 O 2.1981 -1.3109 0.0 0
M  V30 12 C 2.4894 1.3241 0.0 0
M  V30 13 C 3.4825 1.1785 0.0 0 CFG=1
M  V30 14 C 1.8538 3.6944 0.0 0 CFG=2
M  V30 15 C 1.2314 4.3829 0.0 0
M  V30 16 C -3.456 2.9396 0.0 0
M  V30 17 C -1.2049 4.6345 0.0 0
M  V30 18 C 3.403 -1.9994 0.0 0
M  V30 19 C 1.8405 2.4629 0.0 0
M  V30 20 C 4.7934 0.7018 0.0 0
M  V30 21 C 3.1647 2.8204 0.0 0
M  V30 22 C 0.2251 4.5418 0.0 0 CFG=1
M  V30 23 C 1.5492 5.8792 0.0 0
M  V30 24 O 5.2701 2.0921 0.0 0
M  V30 25 C 6.1043 0.2251 0.0 0
M  V30 26 C 4.2373 -0.6091 0.0 0
M  V30 27 N 0.0397 6.0911 0.0 0
M  V30 28 C -0.9931 7.1637 0.0 0
M  V30 29 C -2.4364 6.8459 0.0 0
M  V30 30 C -3.8665 7.2961 0.0 0
M  V30 31 C -3.509 5.8925 0.0 0
M  V30 END ATOM
M  V30 BEGIN BOND
M  V30 1 1 1 2
M  V30 2 1 3 1 CFG=3
M  V30 3 2 2 4
M  V30 4 1 2 5
M  V30 5 1 3 6
M  V30 6 1 3 7
M  V30 7 1 4 8
M  V30 8 1 4 9
M  V30 9 2 5 10
M  V30 10 1 6 11 CFG=3
M  V30 11 1 6 12
M  V30 12 1 6 13
M  V30 13 1 7 14
M  V30 14 1 7 15 CFG=1
M  V30 15 2 9 16
M  V30 16 1 10 17
M  V30 17 1 11 18
M  V30 18 2 12 19
M  V30 19 1 13 20 CFG=3
M  V30 20 1 13 21
M  V30 21 1 14 22
M  V30 22 1 15 23
M  V30 23 1 20 24
M  V30 24 1 20 25
M  V30 25 1 20 26
M  V30 26 1 22 27 CFG=1
M  V30 27 1 27 28
M  V30 28 1 28 29
M  V30 29 1 29 30
M  V30 30 1 29 31
M  V30 31 1 5 7
M  V30 32 1 10 16
M  V30 33 1 14 19 CFG=3
M  V30 34 1 14 21
M  V30 35 1 17 22
M  V30 36 1 23 27
M  V30 37 1 30 31
M  V30 END BOND
M  V30 BEGIN COLLECTION
M  V30 MDLV30/STERAC1 ATOMS=(6 3 6 7 13 14 22)
M  V30 END COLLECTION
M  V30 END CTAB
M  END
>  <SMILES>
[H][C@@]12OC3=C(O)C=CC4=C3[C@@]11CCN(CC3CC3)[C@]([H])(C4)[C@@]11C[C@]([H])(C(C)(C)O)[C@]2(OC)C=C1

>  <INCHI_IDENTIFIER>
InChI=1S/C26H33NO4/c1-23(2,29)18-13-24-8-9-26(18,30-3)22-25(24)10-11-27(14-15-4-5-15)19(24)12-16-6-7-17(28)21(31-22)20(16)25/h6-9,15,18-19,22,28-29H,4-5,10-14H2,1-3H3/t18-,19-,22-,24-,25+,26-/m1/s1

>  <INCHI_KEY>
VSKIOMHXEUHYSI-KNLIIKEYSA-N

>  <FORMULA>
C26H33NO4

>  <MOLECULAR_WEIGHT>
423.553

>  <DRUGBANK_ID>
DB01480

>  <DRUG_GROUPS>
experimental; illicit

>  <GENERIC_NAME>
Cyprenorphine

>  <SYNONYMS>


$$$$
Compound 41
Actelion Java MolfileCreator 2.0

  0  0  0  0  0  0              0 V3000
M  V30 BEGIN CTAB
M  V30 COUNTS 13 13 0 0 0
M  V30 BEGIN ATOM
M  V30 1 O 0.0 0.0 0.0 0
M  V30 2 C -0.0354 1.5142 0.0 0
M  V30 3 N -1.3486 2.2713 0.0 0
M  V30 4 N 1.2066 2.2713 0.0 0
M  V30 5 C -1.384 3.7855 0.0 0
M  V30 6 C 1.1711 3.7855 0.0 0
M  V30 7 O -2.6972 4.5426 0.0 0
M  V30 8 C -0.1419 4.5426 0.0 0
M  V30 9 O 2.4132 4.5426 0.0 0
M  V30 10 C -0.9109 5.8557 0.0 0
M  V30 11 C 0.5678 5.8557 0.0 0
M  V30 12 C -2.4251 5.8912 0.0 0
M  V30 13 C -0.1892 7.1689 0.0 0
M  V30 END ATOM
M  V30 BEGIN BOND
M  V30 1 2 1 2
M  V30 2 1 2 3
M  V30 3 1 2 4
M  V30 4 1 3 5
M  V30 5 1 4 6
M  V30 6 2 5 7
M  V30 7 1 5 8
M  V30 8 2 6 9
M  V30 9 1 8 10
M  V30 10 1 8 11
M  V30 11 1 10 12
M  V30 12 1 11 13
M  V30 13 1 6 8
M  V30 END BOND
M  V30 END CTAB
M  END
>  <SMILES>
CCC1(CC)C(=O)NC(=O)NC1=O

>  <INCHI_IDENTIFIER>
InChI=1S/C8H12N2O3/c1-3-8(4-2)5(11)9-7(13)10-6(8)12/h3-4H2,1-2H3,(H2,9,10,11,12,13)

>  <INCHI_KEY>
FTOAOBMCPZCFFF-UHFFFAOYSA-N

>  <FORMULA>
C8H12N2O3

>  <MOLECULAR_WEIGHT>
184.1925

>  <DRUGBANK_ID>
DB01483

>  <DRUG_GROUPS>
illicit

>  <GENERIC_NAME>
Barbital

>  <SYNONYMS>


$$$$
Compound 42
Actelion Java MolfileCreator 2.0

  0  0  0  0  0  0              0 V3000
M  V30 BEGIN CTAB
M  V30 COUNTS 15 15 0 0 0
M  V30 BEGIN ATOM
M  V30 1 Br 0.0 0.0 0.0 0
M  V30 2 C -0.0357 1.5262 0.0 0
M  V30 3 C 1.2161 2.3012 0.0 0
M  V30 4 C -1.3592 2.3012 0.0 0
M  V30 5 O 2.4681 1.5858 0.0 0
M  V30 6 C 1.1804 3.8274 0.0 0
M  V30 7 C -1.395 3.8274 0.0 0
M  V30 8 C 3.7201 2.3489 0.0 0
M  V30 9 C -0.143 4.6024 0.0 0
M  V30 10 O -2.7185 4.6024 0.0 0
M  V30 11 C -0.1788 6.1286 0.0 0
M  V30 12 C -4.042 3.887 0.0 0
M  V30 13 C 1.0731 6.8917 0.0 0 CFG=1
M  V30 14 N 1.0373 8.4179 0.0 0
M  V30 15 C 2.325 6.1763 0.0 0
M  V30 END ATOM
M  V30 BEGIN BOND
M  V30 1 1 1 2
M  V30 2 2 2 3
M  V30 3 1 2 4
M  V30 4 1 3 5
M  V30 5 1 3 6
M  V30 6 2 4 7
M  V30 7 1 5 8
M  V30 8 2 6 9
M  V30 9 1 7 10
M  V30 10 1 9 11
M  V30 11 1 10 12
M  V30 12 1 11 13
M  V30 13 1 13 14 CFG=1
M  V30 14 1 13 15
M  V30 15 1 7 9
M  V30 END BOND
M  V30 BEGIN COLLECTION
M  V30 MDLV30/STERAC1 ATOMS=(1 13)
M  V30 END COLLECTION
M  V30 END CTAB
M  END
>  <SMILES>
COC1=CC(Br)=C(OC)C=C1CC(C)N

>  <INCHI_IDENTIFIER>
InChI=1S/C11H16BrNO2/c1-7(13)4-8-5-11(15-3)9(12)6-10(8)14-2/h5-7H,4,13H2,1-3H3

>  <INCHI_KEY>
FXMWUTGUCAKGQL-UHFFFAOYSA-N

>  <FORMULA>
C11H16BrNO2

>  <MOLECULAR_WEIGHT>
274.154

>  <DRUGBANK_ID>
DB01484

>  <DRUG_GROUPS>
experimental; illicit

>  <GENERIC_NAME>
4-Bromo-2,5-dimethoxyamphetamine

>  <SYNONYMS>


$$$$
Compound 43
Actelion Java MolfileCreator 2.0

  0  0  0  0  0  0              0 V3000
M  V30 BEGIN CTAB
M  V30 COUNTS 22 25 0 0 0
M  V30 BEGIN ATOM
M  V30 1 O 0.0 0.0 0.0 0
M  V30 2 C 1.2693 0.7857 0.0 0
M  V30 3 C 2.5386 0.0604 0.0 0
M  V30 4 C 1.233 2.3331 0.0 0
M  V30 5 O 2.5023 -1.4143 0.0 0
M  V30 6 C 3.8079 0.8341 0.0 0
M  V30 7 C 2.5023 3.1189 0.0 0
M  V30 8 C 3.7717 2.3814 0.0 0 CFG=1
M  V30 9 C 5.0652 0.1087 0.0 0
M  V30 10 C 5.0289 3.1672 0.0 0 CFG=1
M  V30 11 C 3.7233 3.9288 0.0 0
M  V30 12 C 6.3345 0.8824 0.0 0
M  V30 13 C 6.2861 2.4419 0.0 0 CFG=2
M  V30 14 C 4.9926 4.7025 0.0 0
M  V30 15 C 7.5555 3.2156 0.0 0 CFG=2
M  V30 16 C 6.262 5.4762 0.0 0
M  V30 17 C 7.5313 4.7509 0.0 0 CFG=1
M  V30 18 C 8.9457 2.7683 0.0 0
M  V30 19 C 8.9215 5.2465 0.0 0 CFG=1
M  V30 20 C 7.4829 6.2982 0.0 0
M  V30 21 C 9.7919 4.0134 0.0 0
M  V30 22 O 9.3688 6.7213 0.0 0
M  V30 END ATOM
M  V30 BEGIN BOND
M  V30 1 2 1 2
M  V30 2 1 2 3
M  V30 3 1 2 4
M  V30 4 1 3 5
M  V30 5 2 3 6
M  V30 6 1 4 7
M  V30 7 1 6 8
M  V30 8 1 6 9
M  V30 9 1 8 10
M  V30 10 1 8 11 CFG=3
M  V30 11 1 9 12
M  V30 12 1 10 13
M  V30 13 1 10 14 CFG=3
M  V30 14 1 13 15
M  V30 15 1 14 16
M  V30 16 1 15 17
M  V30 17 1 15 18 CFG=3
M  V30 18 1 17 19
M  V30 19 1 17 20 CFG=3
M  V30 20 1 18 21
M  V30 21 1 19 22 CFG=3
M  V30 22 1 7 8
M  V30 23 1 13 12 CFG=1
M  V30 24 1 16 17
M  V30 25 1 19 21
M  V30 END BOND
M  V30 BEGIN COLLECTION
M  V30 MDLV30/STERAC1 ATOMS=(6 8 10 13 15 17 19)
M  V30 END COLLECTION
M  V30 END CTAB
M  END
>  <SMILES>
[H][C@@]12CC[C@H](O)[C@@]1(C)CC[C@@]1([H])[C@@]2([H])CCC2=C(O)C(=O)CC[C@]12C

>  <INCHI_IDENTIFIER>
InChI=1S/C19H28O3/c1-18-10-8-15(20)17(22)14(18)4-3-11-12-5-6-16(21)19(12,2)9-7-13(11)18/h11-13,16,21-22H,3-10H2,1-2H3/t11-,12-,13-,16-,18+,19-/m0/s1

>  <INCHI_KEY>
BQOIJSIMMIDHMO-FBPKJDBXSA-N

>  <FORMULA>
C19H28O3

>  <MOLECULAR_WEIGHT>
304.43

>  <DRUGBANK_ID>
DB01485

>  <DRUG_GROUPS>
experimental; illicit

>  <GENERIC_NAME>
4-Hydroxytestosterone

>  <SYNONYMS>
4-Androstene-7alpha-17beta-diol-3-one; 4,17beta-Dihydroxy-4-androstene-3-one; 7alpha-Hydroxytestosterone

$$$$
Compound 44
Actelion Java MolfileCreator 2.0

  0  0  0  0  0  0              0 V3000
M  V30 BEGIN CTAB
M  V30 COUNTS 11 11 0 0 0
M  V30 BEGIN ATOM
M  V30 1 O 0.0 0.0 0.0 0
M  V30 2 C -0.0359 1.5323 0.0 0 CFG=2
M  V30 3 C 1.2211 2.2985 0.0 0
M  V30 4 C -1.3647 2.2985 0.0 0 CFG=2
M  V30 5 C 1.1851 3.8309 0.0 0
M  V30 6 C 2.4781 1.5802 0.0 0
M  V30 7 N -2.6936 1.5802 0.0 0
M  V30 8 C -1.4006 3.8309 0.0 0
M  V30 9 C 2.4422 4.609 0.0 0
M  V30 10 C 3.7351 2.3584 0.0 0
M  V30 11 C 3.6992 3.8907 0.0 0
M  V30 END ATOM
M  V30 BEGIN BOND
M  V30 1 1 2 1 CFG=1
M  V30 2 1 2 3
M  V30 3 1 2 4
M  V30 4 2 3 5
M  V30 5 1 3 6
M  V30 6 1 4 7 CFG=3
M  V30 7 1 4 8
M  V30 8 1 5 9
M  V30 9 2 6 10
M  V30 10 2 9 11
M  V30 11 1 10 11
M  V30 END BOND
M  V30 BEGIN COLLECTION
M  V30 MDLV30/STERAC1 ATOMS=(2 2 4)
M  V30 END COLLECTION
M  V30 END CTAB
M  END
>  <SMILES>
C[C@H](N)[C@@H](O)C1=CC=CC=C1

>  <INCHI_IDENTIFIER>
InChI=1S/C9H13NO/c1-7(10)9(11)8-5-3-2-4-6-8/h2-7,9,11H,10H2,1H3/t7-,9+/m0/s1

>  <INCHI_KEY>
DLNKOYKMWOXYQA-IONNQARKSA-N

>  <FORMULA>
C9H13NO

>  <MOLECULAR_WEIGHT>
151.2056

>  <DRUGBANK_ID>
DB01486

>  <DRUG_GROUPS>
experimental; illicit

>  <GENERIC_NAME>
Cathine

>  <SYNONYMS>
(+)-Norpseudoephedrine; Cathina; Cathine; Cathinum; D-Cathine; d-Nor-psi-ephedrine; d-Norpseudoephedrine; Katine; Pseudonorephedrine; psi-Norephedrine

$$$$
Compound 45
Actelion Java MolfileCreator 2.0

  0  0  0  0  0  0              0 V3000
M  V30 BEGIN CTAB
M  V30 COUNTS 21 21 0 0 0
M  V30 BEGIN ATOM
M  V30 1 O 0.0 0.0 0.0 0
M  V30 2 C 1.2714 -0.7265 0.0 0
M  V30 3 N 1.2351 -2.2038 0.0 0
M  V30 4 C 2.5428 0.0605 0.0 0
M  V30 5 C -0.1089 -2.9303 0.0 0
M  V30 6 C 2.5065 1.6104 0.0 0
M  V30 7 C -0.1453 -4.4076 0.0 0
M  V30 8 C 3.7779 2.3854 0.0 0
M  V30 9 C -0.1816 -5.8849 0.0 0
M  V30 10 C 1.3319 -4.3712 0.0 0
M  V30 11 C -1.6952 -4.3712 0.0 0
M  V30 12 O 3.7416 3.9353 0.0 0
M  V30 13 C -1.5257 -6.6114 0.0 0
M  V30 14 C 1.0897 -6.6114 0.0 0
M  V30 15 C 2.0585 -5.6427 0.0 0
M  V30 16 C -2.4702 -3.0272 0.0 0
M  V30 17 C -1.562 -8.0887 0.0 0
M  V30 18 C 1.0534 -8.0887 0.0 0
M  V30 19 O -2.9061 -8.8152 0.0 0
M  V30 20 C -0.2906 -8.8152 0.0 0
M  V30 21 C -2.9424 -10.2925 0.0 0
M  V30 END ATOM
M  V30 BEGIN BOND
M  V30 1 2 1 2
M  V30 2 1 2 3
M  V30 3 1 2 4
M  V30 4 1 3 5
M  V30 5 1 4 6
M  V30 6 1 5 7
M  V30 7 1 6 8
M  V30 8 1 7 9
M  V30 9 1 7 10
M  V30 10 1 7 11
M  V30 11 1 8 12
M  V30 12 2 9 13
M  V30 13 1 9 14
M  V30 14 1 10 15
M  V30 15 1 11 16
M  V30 16 1 13 17
M  V30 17 2 14 18
M  V30 18 1 17 19
M  V30 19 2 17 20
M  V30 20 1 19 21
M  V30 21 1 18 20
M  V30 END BOND
M  V30 END CTAB
M  END
>  <SMILES>
CCC(CC)(CNC(=O)CCCO)C1=CC(OC)=CC=C1

>  <INCHI_IDENTIFIER>
InChI=1S/C17H27NO3/c1-4-17(5-2,13-18-16(20)10-7-11-19)14-8-6-9-15(12-14)21-3/h6,8-9,12,19H,4-5,7,10-11,13H2,1-3H3,(H,18,20)

>  <INCHI_KEY>
LMBMDLOSPKIWAP-UHFFFAOYSA-N

>  <FORMULA>
C17H27NO3

>  <MOLECULAR_WEIGHT>
293.4012

>  <DRUGBANK_ID>
DB01487

>  <DRUG_GROUPS>
experimental; illicit

>  <GENERIC_NAME>
Embutramide

>  <SYNONYMS>
Embutramid

$$$$
Compound 46
Actelion Java MolfileCreator 2.0

  0  0  0  0  0  0              0 V3000
M  V30 BEGIN CTAB
M  V30 COUNTS 14 15 0 0 0
M  V30 BEGIN ATOM
M  V30 1 N 0.0 0.0 0.0 0
M  V30 2 C -0.4915 -1.3928 0.0 0
M  V30 3 C 1.4279 0.3394 0.0 0
M  V30 4 C -1.0416 1.1587 0.0 0
M  V30 5 C -1.9897 -1.6619 0.0 0
M  V30 6 C -2.4812 -3.0547 0.0 0
M  V30 7 C -3.9326 -3.4761 0.0 0
M  V30 8 C -1.6385 -4.2252 0.0 0
M  V30 9 C -3.9677 -4.9391 0.0 0
M  V30 10 C -5.2668 -2.6919 0.0 0
M  V30 11 N -2.5515 -5.3956 0.0 0
M  V30 12 C -5.302 -5.6648 0.0 0
M  V30 13 C -6.6011 -3.3942 0.0 0
M  V30 14 C -6.6362 -4.8806 0.0 0
M  V30 END ATOM
M  V30 BEGIN BOND
M  V30 1 1 1 2
M  V30 2 1 1 3
M  V30 3 1 1 4
M  V30 4 1 2 5
M  V30 5 1 5 6
M  V30 6 1 6 7
M  V30 7 2 6 8
M  V30 8 2 7 9
M  V30 9 1 7 10
M  V30 10 1 8 11
M  V30 11 1 9 12
M  V30 12 2 10 13
M  V30 13 2 12 14
M  V30 14 1 9 11
M  V30 15 1 13 14
M  V30 END BOND
M  V30 END CTAB
M  END
>  <SMILES>
CN(C)CCC1=CNC2=CC=CC=C12

>  <INCHI_IDENTIFIER>
InChI=1S/C12H16N2/c1-14(2)8-7-10-9-13-12-6-4-3-5-11(10)12/h3-6,9,13H,7-8H2,1-2H3

>  <INCHI_KEY>
DMULVCHRPCFFGV-UHFFFAOYSA-N

>  <FORMULA>
C12H16N2

>  <MOLECULAR_WEIGHT>
188.2688

>  <DRUGBANK_ID>
DB01488

>  <DRUG_GROUPS>
experimental; illicit

>  <GENERIC_NAME>
Dimethyltryptamine

>  <SYNONYMS>
2-(3-indolyl)ethyldimethylamine; 3-(2-dimethylaminoethyl)indole; 3-[2-(dimethylamino)ethyl]indole; DMT; N,N-dimethyl-1H-indole-3-ethylamine; N,N-dimethyltryptamine

$$$$
Compound 47
Actelion Java MolfileCreator 2.0

  0  0  0  0  0  0              0 V3000
M  V30 BEGIN CTAB
M  V30 COUNTS 26 28 0 0 0
M  V30 BEGIN ATOM
M  V30 1 Cl 0.0 0.0 0.0 0
M  V30 2 C -0.1604 1.5183 0.0 0
M  V30 3 C 1.0739 2.4319 0.0 0
M  V30 4 C -1.5924 2.2343 0.0 0
M  V30 5 C 0.9011 4.012 0.0 0
M  V30 6 C -1.7405 3.8145 0.0 0
M  V30 7 C 2.1973 4.7033 0.0 0
M  V30 8 C -0.469 4.7033 0.0 0
M  V30 9 N 2.4936 6.1846 0.0 0
M  V30 10 C 3.3207 3.8268 0.0 0
M  V30 11 N -0.8394 6.1846 0.0 0
M  V30 12 C 1.543 7.3821 0.0 0 CFG=2
M  V30 13 C 4.6662 4.4193 0.0 0
M  V30 14 C 3.0614 2.3948 0.0 0
M  V30 15 C 0.037 7.3821 0.0 0
M  V30 16 C -2.3207 6.555 0.0 0
M  V30 17 O 2.1603 8.7523 0.0 0
M  V30 18 C 5.7896 3.5429 0.0 0
M  V30 19 C 4.1848 1.5183 0.0 0
M  V30 20 O -0.6542 8.7523 0.0 0
M  V30 21 C 3.6046 8.9005 0.0 0
M  V30 22 C 5.5304 2.1109 0.0 0
M  V30 23 O 4.3947 7.7154 0.0 0
M  V30 24 N 4.2218 10.2707 0.0 0
M  V30 25 C 5.6662 10.4189 0.0 0
M  V30 26 C 3.3577 11.5299 0.0 0
M  V30 END ATOM
M  V30 BEGIN BOND
M  V30 1 1 1 2
M  V30 2 2 2 3
M  V30 3 1 2 4
M  V30 4 1 3 5
M  V30 5 2 4 6
M  V30 6 1 5 7
M  V30 7 2 5 8
M  V30 8 2 7 9
M  V30 9 1 7 10
M  V30 10 1 8 11
M  V30 11 1 9 12
M  V30 12 2 10 13
M  V30 13 1 10 14
M  V30 14 1 11 15
M  V30 15 1 11 16
M  V30 16 1 12 17 CFG=3
M  V30 17 1 13 18
M  V30 18 2 14 19
M  V30 19 2 15 20
M  V30 20 1 17 21
M  V30 21 2 18 22
M  V30 22 2 21 23
M  V30 23 1 21 24
M  V30 24 1 24 25
M  V30 25 1 24 26
M  V30 26 1 6 8
M  V30 27 1 12 15
M  V30 28 1 19 22
M  V30 END BOND
M  V30 BEGIN COLLECTION
M  V30 MDLV30/STERAC1 ATOMS=(1 12)
M  V30 END COLLECTION
M  V30 END CTAB
M  END
>  <SMILES>
CN(C)C(=O)OC1N=C(C2=CC=CC=C2)C2=C(C=CC(Cl)=C2)N(C)C1=O

>  <INCHI_IDENTIFIER>
InChI=1S/C19H18ClN3O3/c1-22(2)19(25)26-17-18(24)23(3)15-10-9-13(20)11-14(15)16(21-17)12-7-5-4-6-8-12/h4-11,17H,1-3H3

>  <INCHI_KEY>
PXBVEXGRHZFEOF-UHFFFAOYSA-N

>  <FORMULA>
C19H18ClN3O3

>  <MOLECULAR_WEIGHT>
371.818

>  <DRUGBANK_ID>
DB01489

>  <DRUG_GROUPS>
experimental; illicit

>  <GENERIC_NAME>
Camazepam

>  <SYNONYMS>


$$$$
Compound 48
Actelion Java MolfileCreator 2.0

  0  0  0  0  0  0              0 V3000
M  V30 BEGIN CTAB
M  V30 COUNTS 12 13 0 0 0
M  V30 BEGIN ATOM
M  V30 1 O 0.0 0.0 0.0 0
M  V30 2 C 0.422 1.477 0.0 0
M  V30 3 C 1.1956 -0.8674 0.0 0 CFG=2
M  V30 4 N 1.899 1.5121 0.0 0
M  V30 5 N -0.5157 2.743 0.0 0
M  V30 6 C 1.1605 -2.3444 0.0 0
M  V30 7 C 2.3913 0.0703 0.0 0
M  V30 8 C 2.4382 -3.0478 0.0 0
M  V30 9 C -0.1875 -3.0478 0.0 0
M  V30 10 C 2.4031 -4.5248 0.0 0
M  V30 11 C -0.2227 -4.5248 0.0 0
M  V30 12 C 1.055 -5.2282 0.0 0
M  V30 END ATOM
M  V30 BEGIN BOND
M  V30 1 1 1 2
M  V30 2 1 1 3
M  V30 3 2 2 4
M  V30 4 1 2 5
M  V30 5 1 3 6 CFG=1
M  V30 6 1 3 7
M  V30 7 2 6 8
M  V30 8 1 6 9
M  V30 9 1 8 10
M  V30 10 2 9 11
M  V30 11 2 10 12
M  V30 12 1 4 7
M  V30 13 1 11 12
M  V30 END BOND
M  V30 BEGIN COLLECTION
M  V30 MDLV30/STERAC1 ATOMS=(1 3)
M  V30 END COLLECTION
M  V30 END CTAB
M  END
>  <SMILES>
NC1=NCC(O1)C1=CC=CC=C1

>  <INCHI_IDENTIFIER>
InChI=1S/C9H10N2O/c10-9-11-6-8(12-9)7-4-2-1-3-5-7/h1-5,8H,6H2,(H2,10,11)

>  <INCHI_KEY>
SYAKTDIEAPMBAL-UHFFFAOYSA-N

>  <FORMULA>
C9H10N2O

>  <MOLECULAR_WEIGHT>
162.1885

>  <DRUGBANK_ID>
DB01490

>  <DRUG_GROUPS>
experimental; illicit

>  <GENERIC_NAME>
Aminorex

>  <SYNONYMS>
Aminorex; Aminorexum

$$$$
Compound 49
Actelion Java MolfileCreator 2.0

  0  0  0  0  0  0              0 V3000
M  V30 BEGIN CTAB
M  V30 COUNTS 26 28 0 0 0
M  V30 BEGIN ATOM
M  V30 1 O 0.0 0.0 0.0 0
M  V30 2 C -0.7678 -1.2598 0.0 0
M  V30 3 C -2.3036 -1.2238 0.0 0
M  V30 4 C -0.0479 -2.5196 0.0 0
M  V30 5 C -2.3396 -2.6875 0.0 0
M  V30 6 C -2.3396 0.3119 0.0 0
M  V30 7 C -3.8393 -1.1878 0.0 0
M  V30 8 C 1.4157 -2.4836 0.0 0
M  V30 9 C -1.0798 -3.4074 0.0 0
M  V30 10 C -3.6714 -3.4074 0.0 0
M  V30 11 C -3.6714 1.0918 0.0 0
M  V30 12 C -1.0798 1.0918 0.0 0
M  V30 13 C -5.2791 -0.6358 0.0 0 CFG=1
M  V30 14 C -1.1158 -4.8712 0.0 0
M  V30 15 C -3.7074 -4.8712 0.0 0
M  V30 16 C -3.7074 2.6275 0.0 0
M  V30 17 C -1.1158 2.6275 0.0 0
M  V30 18 N -6.4549 -1.5597 0.0 0
M  V30 19 C -5.5791 0.8758 0.0 0
M  V30 20 C -2.4476 -5.5911 0.0 0
M  V30 21 C -2.4476 3.3954 0.0 0
M  V30 22 C -7.8947 -1.0078 0.0 0
M  V30 23 C -6.227 -2.9995 0.0 0
M  V30 24 C -9.0705 -1.9316 0.0 0
M  V30 25 C -7.4028 -3.9233 0.0 0
M  V30 26 C -8.8426 -3.3714 0.0 0
M  V30 END ATOM
M  V30 BEGIN BOND
M  V30 1 2 1 2
M  V30 2 1 2 3
M  V30 3 1 2 4
M  V30 4 1 3 5
M  V30 5 1 3 6
M  V30 6 1 3 7
M  V30 7 1 4 8
M  V30 8 2 5 9
M  V30 9 1 5 10
M  V30 10 2 6 11
M  V30 11 1 6 12
M  V30 12 1 7 13
M  V30 13 1 9 14
M  V30 14 2 10 15
M  V30 15 1 11 16
M  V30 16 2 12 17
M  V30 17 1 13 18 CFG=1
M  V30 18 1 13 19
M  V30 19 2 14 20
M  V30 20 2 16 21
M  V30 21 1 18 22
M  V30 22 1 18 23
M  V30 23 1 22 24
M  V30 24 1 23 25
M  V30 25 1 24 26
M  V30 26 1 15 20
M  V30 27 1 17 21
M  V30 28 1 25 26
M  V30 END BOND
M  V30 BEGIN COLLECTION
M  V30 MDLV30/STERAC1 ATOMS=(1 13)
M  V30 END COLLECTION
M  V30 END CTAB
M  END
>  <SMILES>
CCC(=O)C(CC(C)N1CCCCC1)(C1=CC=CC=C1)C1=CC=CC=C1

>  <INCHI_IDENTIFIER>
InChI=1S/C24H31NO/c1-3-23(26)24(21-13-7-4-8-14-21,22-15-9-5-10-16-22)19-20(2)25-17-11-6-12-18-25/h4-5,7-10,13-16,20H,3,6,11-12,17-19H2,1-2H3

>  <INCHI_KEY>
SVDHSZFEQYXRDC-UHFFFAOYSA-N

>  <FORMULA>
C24H31NO

>  <MOLECULAR_WEIGHT>
349.509

>  <DRUGBANK_ID>
DB01491

>  <DRUG_GROUPS>
experimental; illicit

>  <GENERIC_NAME>
Dipipanone

>  <SYNONYMS>


$$$$
Compound 50
Actelion Java MolfileCreator 2.0

  0  0  0  0  0  0              0 V3000
M  V30 BEGIN CTAB
M  V30 COUNTS 15 13 0 0 0
M  V30 BEGIN ATOM
M  V30 1 Cl 0.0 0.0 0.0 0
M  V30 2 C 1.2576 0.7665 0.0 0
M  V30 3 Cl 0.4791 2.096 0.0 0
M  V30 4 Cl 1.9882 -0.491 0.0 0
M  V30 5 C 2.5152 1.5451 0.0 0
M  V30 6 O 3.7729 0.8264 0.0 0
M  V30 7 O 2.4793 3.0782 0.0 0
M  V30 8 O 3.8328 7.2823 0.0 0
M  V30 9 C 3.7968 8.8154 0.0 0
M  V30 10 O 5.0545 9.594 0.0 0 CHG=-1
M  V30 11 C 2.4673 9.594 0.0 0
M  V30 12 N 1.1378 8.8633 0.0 0 CHG=1
M  V30 13 C 1.8684 7.6057 0.0 0
M  V30 14 C 0.3713 10.1928 0.0 0
M  V30 15 C -0.1916 8.1447 0.0 0
M  V30 END ATOM
M  V30 BEGIN BOND
M  V30 1 1 1 2
M  V30 2 1 2 3
M  V30 3 1 2 4
M  V30 4 1 2 5
M  V30 5 1 5 6
M  V30 6 1 5 7
M  V30 7 2 8 9
M  V30 8 1 9 10
M  V30 9 1 9 11
M  V30 10 1 11 12
M  V30 11 1 12 13
M  V30 12 1 12 14
M  V30 13 1 12 15
M  V30 END BOND
M  V30 END CTAB
M  END
>  <SMILES>
OC(O)C(Cl)(Cl)Cl.C[N+](C)(C)CC([O-])=O

>  <INCHI_IDENTIFIER>
InChI=1S/C5H11NO2.C2H3Cl3O2/c1-6(2,3)4-5(7)8;3-2(4,5)1(6)7/h4H2,1-3H3;1,6-7H

>  <INCHI_KEY>
ONAOIDNSINNZOA-UHFFFAOYSA-N

>  <FORMULA>
C7H14Cl3NO4

>  <MOLECULAR_WEIGHT>
282.549

>  <DRUGBANK_ID>
DB01494

>  <DRUG_GROUPS>
illicit; withdrawn

>  <GENERIC_NAME>
Chloral betaine

>  <SYNONYMS>
Cloral betaine

$$$$
Compound 51
Actelion Java MolfileCreator 2.0

  0  0  0  0  0  0              0 V3000
M  V30 BEGIN CTAB
M  V30 COUNTS 25 27 0 0 0
M  V30 BEGIN ATOM
M  V30 1 S 0.0 0.0 0.0 0
M  V30 2 C -1.3194 0.7607 0.0 0
M  V30 3 N -2.6388 0.0475 0.0 0
M  V30 4 N -1.3551 2.2822 0.0 0
M  V30 5 C -3.9583 0.8083 0.0 0
M  V30 6 C -2.6745 3.043 0.0 0
M  V30 7 O -5.2777 0.095 0.0 0
M  V30 8 C -3.9939 2.3298 0.0 0
M  V30 9 O -2.7102 4.5645 0.0 0
M  V30 10 C -5.3134 3.0905 0.0 0
M  V30 11 C -5.349 4.6121 0.0 0
M  V30 12 O -4.1841 5.5155 0.0 0
M  V30 13 C -6.5853 5.5155 0.0 0
M  V30 14 C -4.6834 6.9657 0.0 0
M  V30 15 C -6.1574 6.9657 0.0 0
M  V30 16 C -3.8513 8.2019 0.0 0
M  V30 17 C -2.413 8.083 0.0 0
M  V30 18 C -4.5051 9.5927 0.0 0
M  V30 19 C -1.5809 9.3193 0.0 0
M  V30 20 C -1.8305 6.7636 0.0 0
M  V30 21 C -3.673 10.8289 0.0 0
M  V30 22 C -2.2347 10.71 0.0 0
M  V30 23 F -3.2213 6.1811 0.0 0
M  V30 24 F -1.2481 5.4441 0.0 0
M  V30 25 F -0.5111 7.4174 0.0 0
M  V30 END ATOM
M  V30 BEGIN BOND
M  V30 1 2 1 2
M  V30 2 1 2 3
M  V30 3 1 2 4
M  V30 4 1 3 5
M  V30 5 1 4 6
M  V30 6 2 5 7
M  V30 7 1 5 8
M  V30 8 2 6 9
M  V30 9 1 8 10
M  V30 10 1 10 11
M  V30 11 1 11 12
M  V30 12 2 11 13
M  V30 13 1 12 14
M  V30 14 1 13 15
M  V30 15 1 14 16
M  V30 16 2 16 17
M  V30 17 1 16 18
M  V30 18 1 17 19
M  V30 19 1 17 20
M  V30 20 2 18 21
M  V30 21 2 19 22
M  V30 22 1 20 23
M  V30 23 1 20 24
M  V30 24 1 20 25
M  V30 25 1 6 8
M  V30 26 2 14 15
M  V30 27 1 21 22
M  V30 END BOND
M  V30 END CTAB
M  END
>  <SMILES>
FC(F)(F)C1=CC=CC=C1C1=CC=C(CC2C(=O)NC(=S)NC2=O)O1

>  <INCHI_IDENTIFIER>
InChI=1S/C16H11F3N2O3S/c17-16(18,19)11-4-2-1-3-9(11)12-6-5-8(24-12)7-10-13(22)20-15(25)21-14(10)23/h1-6,10H,7H2,(H2,20,21,22,23,25)

>  <INCHI_KEY>
DNZPLHRZXUJATK-UHFFFAOYSA-N

>  <FORMULA>
C16H11F3N2O3S

>  <MOLECULAR_WEIGHT>
368.33

>  <DRUGBANK_ID>
DB01496

>  <DRUG_GROUPS>
experimental; illicit

>  <GENERIC_NAME>
Dihydro-2-thioxo-5-((5-(2-(trifluoromethyl)phenyl)-2-furanyl)methyl)-4,6(1H,5H)-pyrimidinedione

>  <SYNONYMS>


$$$$
Compound 52
Actelion Java MolfileCreator 2.0

  0  0  0  0  0  0              0 V3000
M  V30 BEGIN CTAB
M  V30 COUNTS 23 24 0 0 0
M  V30 BEGIN ATOM
M  V30 1 O 0.0 0.0 0.0 0
M  V30 2 C -0.7677 -1.2595 0.0 0 CFG=1
M  V30 3 C -2.3031 -1.2235 0.0 0
M  V30 4 C -0.0479 -2.519 0.0 0
M  V30 5 C -2.3391 0.3118 0.0 0
M  V30 6 C -2.3391 -2.687 0.0 0
M  V30 7 C -3.8386 -1.1875 0.0 0
M  V30 8 C 1.4154 -2.4831 0.0 0
M  V30 9 C -3.6706 1.0916 0.0 0
M  V30 10 C -1.0796 1.0916 0.0 0
M  V30 11 C -1.0796 -3.4067 0.0 0
M  V30 12 C -3.6706 -3.4067 0.0 0
M  V30 13 C -5.2781 -1.6674 0.0 0 CFG=2
M  V30 14 C -3.7066 2.627 0.0 0
M  V30 15 C -1.1155 2.627 0.0 0
M  V30 16 C -1.1155 -4.8702 0.0 0
M  V30 17 C -3.7066 -4.8702 0.0 0
M  V30 18 N -6.4536 -0.6717 0.0 0
M  V30 19 C -5.5779 -3.1068 0.0 0
M  V30 20 C -2.4471 3.3947 0.0 0
M  V30 21 C -2.4471 -5.5899 0.0 0
M  V30 22 C -7.8931 -1.1515 0.0 0
M  V30 23 C -6.2257 0.8396 0.0 0
M  V30 END ATOM
M  V30 BEGIN BOND
M  V30 1 1 2 1 CFG=3
M  V30 2 1 2 3
M  V30 3 1 2 4
M  V30 4 1 3 5
M  V30 5 1 3 6
M  V30 6 1 3 7
M  V30 7 1 4 8
M  V30 8 2 5 9
M  V30 9 1 5 10
M  V30 10 2 6 11
M  V30 11 1 6 12
M  V30 12 1 7 13
M  V30 13 1 9 14
M  V30 14 2 10 15
M  V30 15 1 11 16
M  V30 16 2 12 17
M  V30 17 1 13 18 CFG=1
M  V30 18 1 13 19
M  V30 19 2 14 20
M  V30 20 2 16 21
M  V30 21 1 18 22
M  V30 22 1 18 23
M  V30 23 1 15 20
M  V30 24 1 17 21
M  V30 END BOND
M  V30 BEGIN COLLECTION
M  V30 MDLV30/STEABS ATOMS=(2 2 13)
M  V30 END COLLECTION
M  V30 END CTAB
M  END
>  <SMILES>
CC[C@@H](O)C(C[C@@H](C)N(C)C)(C1=CC=CC=C1)C1=CC=CC=C1

>  <INCHI_IDENTIFIER>
InChI=1S/C21H29NO/c1-5-20(23)21(16-17(2)22(3)4,18-12-8-6-9-13-18)19-14-10-7-11-15-19/h6-15,17,20,23H,5,16H2,1-4H3/t17-,20-/m1/s1

>  <INCHI_KEY>
QIRAYNIFEOXSPW-YLJYHZDGSA-N

>  <FORMULA>
C21H29NO

>  <MOLECULAR_WEIGHT>
311.4611

>  <DRUGBANK_ID>
DB01498

>  <DRUG_GROUPS>
experimental; illicit

>  <GENERIC_NAME>
Alphamethadol

>  <SYNONYMS>


$$$$
Compound 53
Actelion Java MolfileCreator 2.0

  0  0  0  0  0  0              0 V3000
M  V30 BEGIN CTAB
M  V30 COUNTS 20 21 0 0 0
M  V30 BEGIN ATOM
M  V30 1 O 0.0 0.0 0.0 0
M  V30 2 C 1.3778 0.5463 0.0 0
M  V30 3 O 2.4942 -0.3919 0.0 0
M  V30 4 C 1.6034 2.0667 0.0 0
M  V30 5 C 3.2069 -1.6628 0.0 0 CFG=1
M  V30 6 C 0.4157 3.0762 0.0 0
M  V30 7 C 3.9196 -0.3206 0.0 0
M  V30 8 C 1.8647 -2.3755 0.0 0 CFG=2
M  V30 9 C 4.4778 -2.3755 0.0 0
M  V30 10 C 3.1356 1.0214 0.0 0
M  V30 11 C 5.3924 -0.285 0.0 0
M  V30 12 C 1.8291 -3.8483 0.0 0
M  V30 13 C 0.3444 -2.6011 0.0 0
M  V30 14 C 4.4422 -3.8483 0.0 0
M  V30 15 C 3.8483 2.3636 0.0 0
M  V30 16 C 6.105 1.0571 0.0 0
M  V30 17 N 3.1 -4.561 0.0 0
M  V30 18 C -0.2019 -3.9789 0.0 0
M  V30 19 C 5.3211 2.3992 0.0 0
M  V30 20 C 3.0644 -6.0338 0.0 0
M  V30 END ATOM
M  V30 BEGIN BOND
M  V30 1 2 1 2
M  V30 2 1 2 3
M  V30 3 1 2 4
M  V30 4 1 5 3 CFG=3
M  V30 5 1 4 6
M  V30 6 1 5 7
M  V30 7 1 5 8
M  V30 8 1 5 9
M  V30 9 2 7 10
M  V30 10 1 7 11
M  V30 11 1 8 12
M  V30 12 1 8 13 CFG=3
M  V30 13 1 9 14
M  V30 14 1 10 15
M  V30 15 2 11 16
M  V30 16 1 12 17
M  V30 17 1 13 18
M  V30 18 2 15 19
M  V30 19 1 17 20
M  V30 20 1 14 17
M  V30 21 1 16 19
M  V30 END BOND
M  V30 BEGIN COLLECTION
M  V30 MDLV30/STEABS ATOMS=(2 5 8)
M  V30 END COLLECTION
M  V30 END CTAB
M  END
>  <SMILES>
CC[C@H]1CN(C)CC[C@]1(OC(=O)CC)C1=CC=CC=C1

>  <INCHI_IDENTIFIER>
InChI=1S/C17H25NO2/c1-4-14-13-18(3)12-11-17(14,20-16(19)5-2)15-9-7-6-8-10-15/h6-10,14H,4-5,11-13H2,1-3H3/t14-,17+/m0/s1

>  <INCHI_KEY>
ODEGQXRCQDVXSJ-WMLDXEAASA-N

>  <FORMULA>
C17H25NO2

>  <MOLECULAR_WEIGHT>
275.3859

>  <DRUGBANK_ID>
DB01499

>  <DRUG_GROUPS>
experimental; illicit

>  <GENERIC_NAME>
Alphameprodine

>  <SYNONYMS>
3alpha-Ethyl-1-methyl-4-phenyl-4alpha-piperidyl propionat; Alfameprodina; alpha-3-ethyl-1-methyl-4-phenyl-4-propionoxypiperidine; alpha-3-Ethyl-1-methyl-4-phenyl-4-propionyloxypiperidine; Alphameprodinum

$$$$
Compound 54
Actelion Java MolfileCreator 2.0

  0  0  0  0  0  0              0 V3000
M  V30 BEGIN CTAB
M  V30 COUNTS 21 24 0 0 0
M  V30 BEGIN ATOM
M  V30 1 O 0.0 0.0 0.0 0
M  V30 2 C 1.2877 0.7775 0.0 0
M  V30 3 C 2.5391 0.0607 0.0 0
M  V30 4 C 1.2513 2.3204 0.0 0
M  V30 5 O 2.5026 -1.4214 0.0 0
M  V30 6 C 3.8026 0.8504 0.0 0
M  V30 7 C 2.5026 3.1222 0.0 0
M  V30 8 C 3.7661 2.3933 0.0 0 CFG=2
M  V30 9 C 5.0904 0.1336 0.0 0
M  V30 10 C 5.0539 3.1951 0.0 0 CFG=2
M  V30 11 C 6.3417 0.9233 0.0 0
M  V30 12 C 6.3052 2.454 0.0 0 CFG=1
M  V30 13 C 5.0175 4.738 0.0 0
M  V30 14 C 7.593 3.2559 0.0 0 CFG=1
M  V30 15 C 6.2688 5.5156 0.0 0
M  V30 16 C 7.5566 4.7988 0.0 0 CFG=2
M  V30 17 C 8.978 2.8185 0.0 0
M  V30 18 C 8.9416 5.309 0.0 0 CFG=2
M  V30 19 C 7.5201 6.3538 0.0 0
M  V30 20 C 9.8284 4.0577 0.0 0
M  V30 21 O 9.3789 6.7669 0.0 0
M  V30 END ATOM
M  V30 BEGIN BOND
M  V30 1 2 1 2
M  V30 2 1 2 3
M  V30 3 1 2 4
M  V30 4 1 3 5
M  V30 5 2 3 6
M  V30 6 1 4 7
M  V30 7 1 6 8
M  V30 8 1 6 9
M  V30 9 1 8 10
M  V30 10 1 9 11
M  V30 11 1 10 12
M  V30 12 1 10 13 CFG=1
M  V30 13 1 12 14
M  V30 14 1 13 15
M  V30 15 1 14 16
M  V30 16 1 14 17 CFG=1
M  V30 17 1 16 18
M  V30 18 1 16 19 CFG=1
M  V30 19 1 17 20
M  V30 20 1 18 21 CFG=1
M  V30 21 1 8 7 CFG=3
M  V30 22 1 12 11 CFG=3
M  V30 23 1 15 16
M  V30 24 1 18 20
M  V30 END BOND
M  V30 BEGIN COLLECTION
M  V30 MDLV30/STERAC1 ATOMS=(6 8 10 12 14 16 18)
M  V30 END COLLECTION
M  V30 END CTAB
M  END
>  <SMILES>
[H][C@@]12CC[C@H](O)[C@@]1(C)CC[C@]1([H])[C@@]3([H])CCC(=O)C(O)=C3CC[C@@]21[H]

>  <INCHI_IDENTIFIER>
InChI=1S/C18H26O3/c1-18-9-8-11-10-4-6-15(19)17(21)13(10)3-2-12(11)14(18)5-7-16(18)20/h10-12,14,16,20-21H,2-9H2,1H3/t10-,11-,12-,14+,16+,18+/m1/s1

>  <INCHI_KEY>
GXHBCWCMYVTJOW-YGRHGMIBSA-N

>  <FORMULA>
C18H26O3

>  <MOLECULAR_WEIGHT>
290.403

>  <DRUGBANK_ID>
DB01500

>  <DRUG_GROUPS>
experimental; illicit

>  <GENERIC_NAME>
Oxabolone

>  <SYNONYMS>
4-hydroxy nandrolone; 4-hydroxy-19-nortestosterone

$$$$
Compound 55
Actelion Java MolfileCreator 2.0

  0  0  0  0  0  0              0 V3000
M  V30 BEGIN CTAB
M  V30 COUNTS 24 25 0 0 0
M  V30 BEGIN ATOM
M  V30 1 O 0.0 0.0 0.0 0
M  V30 2 C -1.3222 0.7623 0.0 0
M  V30 3 N -2.6444 0.0357 0.0 0
M  V30 4 C -1.3579 2.2871 0.0 0
M  V30 5 C -2.6801 -1.4175 0.0 0
M  V30 6 C -3.9666 0.81 0.0 0
M  V30 7 C -0.1072 3.0613 0.0 0
M  V30 8 C -1.4294 -2.1322 0.0 0
M  V30 9 C -4.0024 -2.1322 0.0 0
M  V30 10 C -4.0024 2.3347 0.0 0 CFG=1
M  V30 11 C -1.4651 -3.5855 0.0 0
M  V30 12 C -4.0381 -3.5855 0.0 0
M  V30 13 N -5.3246 3.109 0.0 0
M  V30 14 C -2.7516 3.109 0.0 0
M  V30 15 C -2.7874 -4.3121 0.0 0
M  V30 16 C -5.3603 4.6337 0.0 0
M  V30 17 C -6.6468 2.3823 0.0 0
M  V30 18 C -6.6826 5.408 0.0 0
M  V30 19 C -6.7183 6.9327 0.0 0
M  V30 20 C -8.0405 7.707 0.0 0
M  V30 21 C -5.4676 7.707 0.0 0
M  V30 22 C -8.0763 9.2317 0.0 0
M  V30 23 C -5.5033 9.2317 0.0 0
M  V30 24 C -6.8255 10.006 0.0 0
M  V30 END ATOM
M  V30 BEGIN BOND
M  V30 1 2 1 2
M  V30 2 1 2 3
M  V30 3 1 2 4
M  V30 4 1 3 5
M  V30 5 1 3 6
M  V30 6 1 4 7
M  V30 7 2 5 8
M  V30 8 1 5 9
M  V30 9 1 6 10
M  V30 10 1 8 11
M  V30 11 2 9 12
M  V30 12 1 10 13 CFG=1
M  V30 13 1 10 14
M  V30 14 2 11 15
M  V30 15 1 13 16
M  V30 16 1 13 17
M  V30 17 1 16 18
M  V30 18 1 18 19
M  V30 19 2 19 20
M  V30 20 1 19 21
M  V30 21 1 20 22
M  V30 22 2 21 23
M  V30 23 2 22 24
M  V30 24 1 12 15
M  V30 25 1 23 24
M  V30 END BOND
M  V30 BEGIN COLLECTION
M  V30 MDLV30/STERAC1 ATOMS=(1 10)
M  V30 END COLLECTION
M  V30 END CTAB
M  END
>  <SMILES>
CCC(=O)N(CC(C)N(C)CCC1=CC=CC=C1)C1=CC=CC=C1

>  <INCHI_IDENTIFIER>
InChI=1S/C21H28N2O/c1-4-21(24)23(20-13-9-6-10-14-20)17-18(2)22(3)16-15-19-11-7-5-8-12-19/h5-14,18H,4,15-17H2,1-3H3

>  <INCHI_KEY>
RXTHKWVSXOIHJS-UHFFFAOYSA-N

>  <FORMULA>
C21H28N2O

>  <MOLECULAR_WEIGHT>
324.4598

>  <DRUGBANK_ID>
DB01502

>  <DRUG_GROUPS>
experimental; illicit

>  <GENERIC_NAME>
Diampromide

>  <SYNONYMS>


$$$$
Compound 56
Actelion Java MolfileCreator 2.0

  0  0  0  0  0  0              0 V3000
M  V30 BEGIN CTAB
M  V30 COUNTS 21 24 0 0 0
M  V30 BEGIN ATOM
M  V30 1 O 0.0 0.0 0.0 0
M  V30 2 C 1.2627 0.777 0.0 0 CFG=1
M  V30 3 C 1.2263 2.3312 0.0 0
M  V30 4 C 2.5255 0.0485 0.0 0
M  V30 5 C 2.489 3.1204 0.0 0
M  V30 6 C 3.7882 0.8377 0.0 0 CFG=1
M  V30 7 C 3.7518 2.3919 0.0 0 CFG=1
M  V30 8 C 5.051 0.1092 0.0 0
M  V30 9 C 5.0146 3.1811 0.0 0 CFG=2
M  V30 10 C 3.7154 3.9218 0.0 0
M  V30 11 C 6.3137 0.8985 0.0 0
M  V30 12 C 6.2773 2.4526 0.0 0 CFG=1
M  V30 13 C 4.9781 4.711 0.0 0
M  V30 14 C 7.5401 3.2418 0.0 0 CFG=1
M  V30 15 C 6.2409 5.5002 0.0 0
M  V30 16 C 7.5036 4.7717 0.0 0 CFG=2
M  V30 17 C 8.9242 2.8047 0.0 0
M  V30 18 C 8.8878 5.2817 0.0 0 CFG=2
M  V30 19 C 7.4672 6.3137 0.0 0
M  V30 20 C 9.7742 4.0553 0.0 0
M  V30 21 O 9.3249 6.763 0.0 0
M  V30 END ATOM
M  V30 BEGIN BOND
M  V30 1 1 2 1 CFG=1
M  V30 2 1 2 3
M  V30 3 1 2 4
M  V30 4 2 3 5
M  V30 5 1 6 4 CFG=1
M  V30 6 1 5 7
M  V30 7 1 6 8
M  V30 8 1 7 9
M  V30 9 1 7 10 CFG=1
M  V30 10 1 8 11
M  V30 11 1 9 12
M  V30 12 1 9 13 CFG=1
M  V30 13 1 12 14
M  V30 14 1 13 15
M  V30 15 1 14 16
M  V30 16 1 14 17 CFG=1
M  V30 17 1 16 18
M  V30 18 1 16 19 CFG=1
M  V30 19 1 17 20
M  V30 20 1 18 21 CFG=1
M  V30 21 1 6 7
M  V30 22 1 12 11 CFG=3
M  V30 23 1 15 16
M  V30 24 1 18 20
M  V30 END BOND
M  V30 BEGIN COLLECTION
M  V30 MDLV30/STERAC1 ATOMS=(8 2 6 7 9 12 14 16 18)
M  V30 END COLLECTION
M  V30 END CTAB
M  END
>  <SMILES>
[H][C@@]12CC[C@H](O)[C@@]1(C)CC[C@@]1([H])[C@@]2([H])CC[C@@]2([H])C[C@@H](O)C=C[C@]12C

>  <INCHI_IDENTIFIER>
InChI=1S/C19H30O2/c1-18-9-7-13(20)11-12(18)3-4-14-15-5-6-17(21)19(15,2)10-8-16(14)18/h7,9,12-17,20-21H,3-6,8,10-11H2,1-2H3/t12-,13-,14-,15-,16-,17-,18-,19-/m0/s1

>  <INCHI_KEY>
RZFGPAMUAXASRE-YSZCXEEOSA-N

>  <FORMULA>
C19H30O2

>  <MOLECULAR_WEIGHT>
290.447

>  <DRUGBANK_ID>
DB01503

>  <DRUG_GROUPS>
experimental; illicit

>  <GENERIC_NAME>
1-Androstenediol

>  <SYNONYMS>


$$$$
Compound 57
Actelion Java MolfileCreator 2.0

  0  0  0  0  0  0              0 V3000
M  V30 BEGIN CTAB
M  V30 COUNTS 23 24 0 0 0
M  V30 BEGIN ATOM
M  V30 1 O 0.0 0.0 0.0 0
M  V30 2 C -0.3019 -1.4492 0.0 0
M  V30 3 O -1.8477 -1.4129 0.0 0
M  V30 4 C 0.4226 -2.7172 0.0 0
M  V30 5 C -2.6206 -0.0724 0.0 0
M  V30 6 C 1.5337 -1.7149 0.0 0
M  V30 7 C 1.6907 -3.4418 0.0 0
M  V30 8 C -0.9178 -3.4418 0.0 0
M  V30 9 C -4.1665 -0.0362 0.0 0
M  V30 10 C 1.2318 -0.1932 0.0 0
M  V30 11 C 2.9105 -2.1979 0.0 0
M  V30 12 C 1.6545 -4.9152 0.0 0
M  V30 13 C -0.954 -4.9152 0.0 0
M  V30 14 C 2.3429 0.8091 0.0 0
M  V30 15 C 4.0215 -1.1956 0.0 0
M  V30 16 N 0.3139 -5.6398 0.0 0
M  V30 17 C 3.7196 0.326 0.0 0
M  V30 18 C 0.2777 -7.1132 0.0 0
M  V30 19 C -1.0627 -7.8378 0.0 0
M  V30 20 O -1.0989 -9.3112 0.0 0
M  V30 21 C -2.4395 -10.0358 0.0 0
M  V30 22 C -2.4757 -11.5092 0.0 0
M  V30 23 O -3.8162 -12.2338 0.0 0
M  V30 END ATOM
M  V30 BEGIN BOND
M  V30 1 2 1 2
M  V30 2 1 2 3
M  V30 3 1 2 4
M  V30 4 1 3 5
M  V30 5 1 4 6
M  V30 6 1 4 7
M  V30 7 1 4 8
M  V30 8 1 5 9
M  V30 9 2 6 10
M  V30 10 1 6 11
M  V30 11 1 7 12
M  V30 12 1 8 13
M  V30 13 1 10 14
M  V30 14 2 11 15
M  V30 15 1 12 16
M  V30 16 2 14 17
M  V30 17 1 16 18
M  V30 18 1 18 19
M  V30 19 1 19 20
M  V30 20 1 20 21
M  V30 21 1 21 22
M  V30 22 1 22 23
M  V30 23 1 13 16
M  V30 24 1 15 17
M  V30 END BOND
M  V30 END CTAB
M  END
>  <SMILES>
CCOC(=O)C1(CCN(CCOCCO)CC1)C1=CC=CC=C1

>  <INCHI_IDENTIFIER>
InChI=1S/C18H27NO4/c1-2-23-17(21)18(16-6-4-3-5-7-16)8-10-19(11-9-18)12-14-22-15-13-20/h3-7,20H,2,8-15H2,1H3

>  <INCHI_KEY>
KJTKYGFGPQSRRA-UHFFFAOYSA-N

>  <FORMULA>
C18H27NO4

>  <MOLECULAR_WEIGHT>
321.4113

>  <DRUGBANK_ID>
DB01505

>  <DRUG_GROUPS>
experimental; illicit

>  <GENERIC_NAME>
Etoxeridine

>  <SYNONYMS>


$$$$
Compound 58
Actelion Java MolfileCreator 2.0

  0  0  0  0  0  0              0 V3000
M  V30 BEGIN CTAB
M  V30 COUNTS 13 14 0 0 0
M  V30 BEGIN ATOM
M  V30 1 N 0.0 0.0 0.0 0
M  V30 2 C 0.7399 -1.2737 0.0 0
M  V30 3 C 2.0137 -0.4852 0.0 0
M  V30 4 C 2.0137 -2.0137 0.0 0
M  V30 5 C -0.6065 -2.0137 0.0 0
M  V30 6 C 3.2875 -1.2252 0.0 0
M  V30 7 C 1.9773 1.0675 0.0 0
M  V30 8 C 1.9773 -3.4937 0.0 0
M  V30 9 C -0.6429 -3.4937 0.0 0
M  V30 10 C 4.5612 -0.4367 0.0 0
M  V30 11 C 3.2511 1.856 0.0 0
M  V30 12 C 0.6308 -4.2337 0.0 0
M  V30 13 C 4.5248 1.116 0.0 0
M  V30 END ATOM
M  V30 BEGIN BOND
M  V30 1 1 1 2
M  V30 2 1 2 3
M  V30 3 1 2 4
M  V30 4 1 2 5
M  V30 5 2 3 6
M  V30 6 1 3 7
M  V30 7 1 4 8
M  V30 8 1 5 9
M  V30 9 1 6 10
M  V30 10 2 7 11
M  V30 11 1 8 12
M  V30 12 2 10 13
M  V30 13 1 9 12
M  V30 14 1 11 13
M  V30 END BOND
M  V30 END CTAB
M  END
>  <SMILES>
NC1(CCCCC1)C1=CC=CC=C1

>  <INCHI_IDENTIFIER>
InChI=1S/C12H17N/c13-12(9-5-2-6-10-12)11-7-3-1-4-8-11/h1,3-4,7-8H,2,5-6,9-10,13H2

>  <INCHI_KEY>
RGZGRPPQZUQUCR-UHFFFAOYSA-N

>  <FORMULA>
C12H17N

>  <MOLECULAR_WEIGHT>
175.2701

>  <DRUGBANK_ID>
DB01506

>  <DRUG_GROUPS>
experimental; illicit

>  <GENERIC_NAME>
1-Phenylcyclohexylamine

>  <SYNONYMS>


$$$$
Compound 59
Actelion Java MolfileCreator 2.0

  0  0  0  0  0  0              0 V3000
M  V30 BEGIN CTAB
M  V30 COUNTS 13 14 0 0 0
M  V30 BEGIN ATOM
M  V30 1 O 0.0 0.0 0.0 0
M  V30 2 C -1.4495 -0.4174 0.0 0
M  V30 3 C 0.8465 -1.1712 0.0 0
M  V30 4 C -1.4843 -1.8785 0.0 0
M  V30 5 C -2.783 0.3594 0.0 0
M  V30 6 O -0.0695 -2.3424 0.0 0
M  V30 7 C -2.8178 -2.5743 0.0 0
M  V30 8 C -4.1166 -0.3362 0.0 0
M  V30 9 C -4.1514 -1.7858 0.0 0
M  V30 10 C -5.4501 0.4406 0.0 0
M  V30 11 C -6.7837 -0.2551 0.0 0 CFG=1
M  V30 12 N -8.1173 0.5334 0.0 0
M  V30 13 C -6.8185 -1.7162 0.0 0
M  V30 END ATOM
M  V30 BEGIN BOND
M  V30 1 1 1 2
M  V30 2 1 1 3
M  V30 3 2 2 4
M  V30 4 1 2 5
M  V30 5 1 3 6
M  V30 6 1 4 7
M  V30 7 2 5 8
M  V30 8 2 7 9
M  V30 9 1 8 10
M  V30 10 1 10 11
M  V30 11 1 11 12 CFG=3
M  V30 12 1 11 13
M  V30 13 1 4 6
M  V30 14 1 8 9
M  V30 END BOND
M  V30 BEGIN COLLECTION
M  V30 MDLV30/STERAC1 ATOMS=(1 11)
M  V30 END COLLECTION
M  V30 END CTAB
M  END
>  <SMILES>
CC(N)CC1=CC2=C(OCO2)C=C1

>  <INCHI_IDENTIFIER>
InChI=1S/C10H13NO2/c1-7(11)4-8-2-3-9-10(5-8)13-6-12-9/h2-3,5,7H,4,6,11H2,1H3

>  <INCHI_KEY>
NGBBVGZWCFBOGO-UHFFFAOYSA-N

>  <FORMULA>
C10H13NO2

>  <MOLECULAR_WEIGHT>
179.2157

>  <DRUGBANK_ID>
DB01509

>  <DRUG_GROUPS>
experimental; illicit

>  <GENERIC_NAME>
Tenamfetamine

>  <SYNONYMS>
3,4-methylenedioxyamphetamine; MDA; Methylenedioxyamphetamine; Tenamfetamina; Tenamfetamine; Tenamfetaminum

$$$$
Compound 60
Actelion Java MolfileCreator 2.0

  0  0  0  0  0  0              0 V3000
M  V30 BEGIN CTAB
M  V30 COUNTS 20 22 0 0 0
M  V30 BEGIN ATOM
M  V30 1 Cl 0.0 0.0 0.0 0
M  V30 2 C 1.3428 0.5704 0.0 0
M  V30 3 C 1.521 2.0677 0.0 0
M  V30 4 C 2.4717 -0.3208 0.0 0
M  V30 5 C 0.3208 3.0303 0.0 0
M  V30 6 C 2.8639 2.6381 0.0 0
M  V30 7 C 3.8146 0.2495 0.0 0
M  V30 8 N 0.606 4.5038 0.0 0
M  V30 9 C -1.0457 2.4361 0.0 0
M  V30 10 C 3.9928 1.7468 0.0 0
M  V30 11 C -0.3565 5.7041 0.0 0
M  V30 12 C -2.4123 3.1016 0.0 0
M  V30 13 C -0.9506 0.9387 0.0 0
M  V30 14 C -1.8657 5.7397 0.0 0
M  V30 15 N -2.7688 4.5751 0.0 0
M  V30 16 C -3.7314 2.2816 0.0 0
M  V30 17 C -2.2578 0.0831 0.0 0
M  V30 18 O -2.5311 7.1063 0.0 0
M  V30 19 C -3.6601 0.7843 0.0 0
M  V30 20 Cl -2.1746 -1.3547 0.0 0
M  V30 END ATOM
M  V30 BEGIN BOND
M  V30 1 1 1 2
M  V30 2 2 2 3
M  V30 3 1 2 4
M  V30 4 1 3 5
M  V30 5 1 3 6
M  V30 6 2 4 7
M  V30 7 2 5 8
M  V30 8 1 5 9
M  V30 9 2 6 10
M  V30 10 1 8 11
M  V30 11 2 9 12
M  V30 12 1 9 13
M  V30 13 1 11 14
M  V30 14 1 12 15
M  V30 15 1 12 16
M  V30 16 2 13 17
M  V30 17 2 14 18
M  V30 18 2 16 19
M  V30 19 1 17 20
M  V30 20 1 7 10
M  V30 21 1 14 15
M  V30 22 1 17 19
M  V30 END BOND
M  V30 END CTAB
M  END
>  <SMILES>
ClC1=CC2=C(NC(=O)CN=C2C2=CC=CC=C2Cl)C=C1

>  <INCHI_IDENTIFIER>
InChI=1S/C15H10Cl2N2O/c16-9-5-6-13-11(7-9)15(18-8-14(20)19-13)10-3-1-2-4-12(10)17/h1-7H,8H2,(H,19,20)

>  <INCHI_KEY>
CHIFCDOIPRCHCF-UHFFFAOYSA-N

>  <FORMULA>
C15H10Cl2N2O

>  <MOLECULAR_WEIGHT>
305.159

>  <DRUGBANK_ID>
DB01511

>  <DRUG_GROUPS>
experimental; illicit

>  <GENERIC_NAME>
Delorazepam

>  <SYNONYMS>
Chlordesmethyldiazepam; Clordesmetildiazepam; Delorazepam; Delorazepamum

$$$$
Compound 61
Actelion Java MolfileCreator 2.0

  0  0  0  0  0  0              0 V3000
M  V30 BEGIN CTAB
M  V30 COUNTS 22 26 0 0 0
M  V30 BEGIN ATOM
M  V30 1 O 0.0 0.0 0.0 0
M  V30 2 C 0.9093 1.4198 0.0 0
M  V30 3 C 0.9093 -1.4836 0.0 0 CFG=2
M  V30 4 C 0.8615 2.9195 0.0 0
M  V30 5 C 2.1218 0.7498 0.0 0
M  V30 6 C 2.1218 -0.7179 0.0 0 CFG=2
M  V30 7 C 0.8615 -2.8876 0.0 0 CFG=1
M  V30 8 O -0.5105 3.7172 0.0 0
M  V30 9 C 2.0739 3.6853 0.0 0
M  V30 10 C 3.3343 1.5156 0.0 0
M  V30 11 C 3.3343 -1.3879 0.0 0 CFG=2
M  V30 12 C 2.9035 0.3988 0.0 0
M  V30 13 O -0.5105 -3.5895 0.0 0
M  V30 14 C 2.0739 -3.5576 0.0 0
M  V30 15 C 3.2864 3.0152 0.0 0
M  V30 16 C 4.5468 0.8455 0.0 0
M  V30 17 O 4.2436 -2.5206 0.0 0
M  V30 18 C 4.5468 -0.6221 0.0 0 CFG=1
M  V30 19 C 3.2864 -2.7918 0.0 0
M  V30 20 C 4.9137 0.4467 0.0 0
M  V30 21 N 5.7592 -1.2922 0.0 0
M  V30 22 C 6.7324 -2.3771 0.0 0
M  V30 END ATOM
M  V30 BEGIN BOND
M  V30 1 1 1 2
M  V30 2 1 3 1 CFG=3
M  V30 3 2 2 4
M  V30 4 1 2 5
M  V30 5 1 3 6
M  V30 6 1 3 7
M  V30 7 1 4 8
M  V30 8 1 4 9
M  V30 9 2 5 10
M  V30 10 1 6 11
M  V30 11 1 6 12 CFG=1
M  V30 12 1 7 13 CFG=3
M  V30 13 1 7 14
M  V30 14 2 9 15
M  V30 15 1 10 16
M  V30 16 1 11 17 CFG=1
M  V30 17 1 11 18
M  V30 18 1 11 19
M  V30 19 1 12 20
M  V30 20 1 18 21 CFG=1
M  V30 21 1 21 22
M  V30 22 1 5 6
M  V30 23 1 10 15
M  V30 24 1 14 19
M  V30 25 1 16 18
M  V30 26 1 20 21
M  V30 END BOND
M  V30 BEGIN COLLECTION
M  V30 MDLV30/STEABS ATOMS=(5 3 6 7 11 18)
M  V30 END COLLECTION
M  V30 END CTAB
M  END
>  <SMILES>
[H][C@@]12OC3=C(O)C=CC4=C3[C@@]11CCN(C)[C@]([H])(C4)[C@]1(O)CC[C@@H]2O

>  <INCHI_IDENTIFIER>
InChI=1S/C17H21NO4/c1-18-7-6-16-13-9-2-3-10(19)14(13)22-15(16)11(20)4-5-17(16,21)12(18)8-9/h2-3,11-12,15,19-21H,4-8H2,1H3/t11-,12+,15-,16-,17+/m0/s1

>  <INCHI_KEY>
AABLHGPVOULICI-BRJGLHKUSA-N

>  <FORMULA>
C17H21NO4

>  <MOLECULAR_WEIGHT>
303.3529

>  <DRUGBANK_ID>
DB01512

>  <DRUG_GROUPS>
experimental; illicit

>  <GENERIC_NAME>
Hydromorphinol

>  <SYNONYMS>


$$$$
Compound 62
Actelion Java MolfileCreator 2.0

  0  0  0  0  0  0              0 V3000
M  V30 BEGIN CTAB
M  V30 COUNTS 22 25 0 0 0
M  V30 BEGIN ATOM
M  V30 1 O 0.0 0.0 0.0 0
M  V30 2 C 0.1921 1.5372 0.0 0 CFG=2
M  V30 3 C 1.6694 1.5252 0.0 0 CFG=2
M  V30 4 C -0.2642 3.0265 0.0 0
M  V30 5 C -1.237 0.9848 0.0 0
M  V30 6 C 2.1498 2.9905 0.0 0 CFG=1
M  V30 7 C 2.6061 0.4083 0.0 0
M  V30 8 C 0.9728 0.2041 0.0 0
M  V30 9 C 0.9487 3.9032 0.0 0
M  V30 10 C 3.603 3.2907 0.0 0 CFG=1
M  V30 11 C 4.0594 0.7085 0.0 0
M  V30 12 C 4.5398 2.1738 0.0 0 CFG=2
M  V30 13 C 4.0834 4.7559 0.0 0
M  V30 14 C 5.993 2.474 0.0 0 CFG=2
M  V30 15 C 5.5366 5.0562 0.0 0
M  V30 16 C 6.4734 3.9393 0.0 0 CFG=1
M  V30 17 C 6.9298 1.3571 0.0 0
M  V30 18 C 5.4405 1.0809 0.0 0
M  V30 19 C 7.9266 4.2395 0.0 0
M  V30 20 C 8.383 1.6573 0.0 0
M  V30 21 C 8.8634 3.1226 0.0 0 CFG=2
M  V30 22 O 10.3166 3.4228 0.0 0
M  V30 END ATOM
M  V30 BEGIN BOND
M  V30 1 1 2 1 CFG=1
M  V30 2 1 2 3
M  V30 3 1 2 4
M  V30 4 1 2 5
M  V30 5 1 3 6
M  V30 6 1 3 7
M  V30 7 1 3 8 CFG=1
M  V30 8 1 4 9
M  V30 9 1 6 10
M  V30 10 1 7 11
M  V30 11 1 10 12
M  V30 12 1 10 13 CFG=3
M  V30 13 1 12 14
M  V30 14 1 13 15
M  V30 15 1 14 16
M  V30 16 1 14 17
M  V30 17 1 14 18 CFG=1
M  V30 18 1 16 19 CFG=1
M  V30 19 1 17 20
M  V30 20 1 19 21
M  V30 21 1 21 22 CFG=1
M  V30 22 1 6 9 CFG=1
M  V30 23 1 12 11 CFG=1
M  V30 24 1 15 16
M  V30 25 1 20 21
M  V30 END BOND
M  V30 BEGIN COLLECTION
M  V30 MDLV30/STEABS ATOMS=(8 2 3 6 10 12 14 16 21)
M  V30 END COLLECTION
M  V30 END CTAB
M  END
>  <SMILES>
C[C@]1(O)CC[C@H]2[C@@H]3CC[C@H]4C[C@@H](O)CC[C@]4(C)[C@H]3CC[C@]12C

>  <INCHI_IDENTIFIER>
InChI=1S/C20H34O2/c1-18-9-6-14(21)12-13(18)4-5-15-16(18)7-10-19(2)17(15)8-11-20(19,3)22/h13-17,21-22H,4-12H2,1-3H3/t13-,14-,15+,16-,17-,18-,19-,20-/m0/s1

>  <INCHI_KEY>
QGKQXZFZOIQFBI-UYEYMFBJSA-N

>  <FORMULA>
C20H34O2

>  <MOLECULAR_WEIGHT>
306.49

>  <DRUGBANK_ID>
DB01513

>  <DRUG_GROUPS>
experimental; illicit

>  <GENERIC_NAME>
17Alpha-methyl-3beta,17beta-dihydroxy-5alpha-androstane

>  <SYNONYMS>


$$$$
Compound 63
Actelion Java MolfileCreator 2.0

  0  0  0  0  0  0              0 V3000
M  V30 BEGIN CTAB
M  V30 COUNTS 24 28 0 0 0
M  V30 BEGIN ATOM
M  V30 1 O 0.0 0.0 0.0 0
M  V30 2 N 0.8768 -1.2131 0.0 0
M  V30 3 N 0.8768 1.2852 0.0 0
M  V30 4 C 2.3062 -0.7087 0.0 0
M  V30 5 C 2.3062 0.8528 0.0 0
M  V30 6 C 3.6155 -1.4294 0.0 0
M  V30 7 C 3.6155 1.6696 0.0 0
M  V30 8 C 4.9128 -0.5885 0.0 0 CFG=1
M  V30 9 C 4.9128 0.9008 0.0 0 CFG=1
M  V30 10 C 6.174 -1.2852 0.0 0 CFG=2
M  V30 11 C 4.8768 -2.042 0.0 0
M  V30 12 C 6.174 1.6816 0.0 0
M  V30 13 C 7.4353 -0.5044 0.0 0 CFG=1
M  V30 14 C 6.114 -2.7987 0.0 0
M  V30 15 C 7.4353 0.9849 0.0 0
M  V30 16 C 8.7566 -1.2131 0.0 0 CFG=1
M  V30 17 C 7.4113 -3.5555 0.0 0
M  V30 18 C 8.7326 -2.7266 0.0 0 CFG=2
M  V30 19 C 10.186 -0.6966 0.0 0
M  V30 20 C 10.162 -3.1471 0.0 0 CFG=2
M  V30 21 C 8.7086 -4.1801 0.0 0
M  V30 22 C 11.0749 -1.9098 0.0 0
M  V30 23 O 11.3392 -3.9879 0.0 0
M  V30 24 C 9.6815 -4.5284 0.0 0
M  V30 END ATOM
M  V30 BEGIN BOND
M  V30 1 1 1 2
M  V30 2 1 1 3
M  V30 3 2 2 4
M  V30 4 2 3 5
M  V30 5 1 4 6
M  V30 6 1 5 7
M  V30 7 1 6 8
M  V30 8 1 9 7 CFG=3
M  V30 9 1 8 10
M  V30 10 1 8 11 CFG=3
M  V30 11 1 9 12
M  V30 12 1 10 13
M  V30 13 1 10 14 CFG=3
M  V30 14 1 12 15
M  V30 15 1 13 16
M  V30 16 1 14 17
M  V30 17 1 16 18
M  V30 18 1 16 19 CFG=3
M  V30 19 1 18 20
M  V30 20 1 18 21 CFG=3
M  V30 21 1 19 22
M  V30 22 1 20 23 CFG=3
M  V30 23 1 20 24
M  V30 24 1 4 5
M  V30 25 1 8 9
M  V30 26 1 13 15 CFG=1
M  V30 27 1 17 18
M  V30 28 1 20 22
M  V30 END BOND
M  V30 BEGIN COLLECTION
M  V30 MDLV30/STEABS ATOMS=(7 8 9 10 13 16 18 20)
M  V30 END COLLECTION
M  V30 END CTAB
M  END
>  <SMILES>
[H][C@@]12CC[C@](C)(O)[C@@]1(C)CC[C@@]1([H])[C@@]2([H])CC[C@@]2([H])CC3=NON=C3C[C@]12C

>  <INCHI_IDENTIFIER>
InChI=1S/C20H30N2O2/c1-18-11-17-16(21-24-22-17)10-12(18)4-5-13-14(18)6-8-19(2)15(13)7-9-20(19,3)23/h12-15,23H,4-11H2,1-3H3/t12-,13+,14-,15-,18-,19-,20-/m0/s1

>  <INCHI_KEY>
RGLLOUBXMOGLDQ-IVEVATEUSA-N

>  <FORMULA>
C20H30N2O2

>  <MOLECULAR_WEIGHT>
330.4644

>  <DRUGBANK_ID>
DB01514

>  <DRUG_GROUPS>
illicit

>  <GENERIC_NAME>
Furazabol

>  <SYNONYMS>


$$$$
Compound 64
Actelion Java MolfileCreator 2.0

  0  0  0  0  0  0              0 V3000
M  V30 BEGIN CTAB
M  V30 COUNTS 21 23 0 0 0
M  V30 BEGIN ATOM
M  V30 1 O 0.0 0.0 0.0 0
M  V30 2 C -0.0734 -1.1258 0.0 0
M  V30 3 O 0.8811 -1.6398 0.0 0
M  V30 4 C -1.1748 -1.6398 0.0 0
M  V30 5 C 1.8356 -0.979 0.0 0 CFG=2
M  V30 6 C -1.2482 -2.7657 0.0 0
M  V30 7 C -2.2762 -0.979 0.0 0
M  V30 8 C 2.8636 -1.3951 0.0 0 CFG=2
M  V30 9 C 1.8846 0.2937 0.0 0
M  V30 10 C -2.3496 -3.2797 0.0 0
M  V30 11 C -3.3776 -1.493 0.0 0
M  V30 12 C 3.035 -2.4965 0.0 0
M  V30 13 C 4.6748 0.1713 0.0 0 CFG=2
M  V30 14 C 4.9686 1.3216 0.0 0 CFG=1
M  V30 15 C -3.4511 -2.6189 0.0 0
M  V30 16 O 4.0874 -2.7902 0.0 0
M  V30 17 O 2.0804 -3.2308 0.0 0
M  V30 18 N 4.0385 2.6189 0.0 0
M  V30 19 C 6.8287 -0.6608 0.0 0
M  V30 20 C 7.1224 0.4895 0.0 0
M  V30 21 C 3.3776 3.7203 0.0 0
M  V30 END ATOM
M  V30 BEGIN BOND
M  V30 1 2 1 2
M  V30 2 1 2 3
M  V30 3 1 2 4
M  V30 4 1 5 3 CFG=1
M  V30 5 2 4 6
M  V30 6 1 4 7
M  V30 7 1 5 8
M  V30 8 1 5 9
M  V30 9 1 6 10
M  V30 10 2 7 11
M  V30 11 1 8 12 CFG=1
M  V30 12 1 8 13
M  V30 13 1 9 14
M  V30 14 2 10 15
M  V30 15 2 12 16
M  V30 16 1 12 17
M  V30 17 1 13 18 CFG=3
M  V30 18 1 13 19
M  V30 19 1 14 20
M  V30 20 1 18 21
M  V30 21 1 11 15
M  V30 22 1 14 18 CFG=1
M  V30 23 1 19 20
M  V30 END BOND
M  V30 BEGIN COLLECTION
M  V30 MDLV30/STEABS ATOMS=(4 5 8 13 14)
M  V30 END COLLECTION
M  V30 END CTAB
M  END
>  <SMILES>
[H][C@]12CC[C@]([H])([C@H]([C@H](C1)OC(=O)C1=CC=CC=C1)C(O)=O)N2C

>  <INCHI_IDENTIFIER>
InChI=1S/C16H19NO4/c1-17-11-7-8-12(17)14(15(18)19)13(9-11)21-16(20)10-5-3-2-4-6-10/h2-6,11-14H,7-9H2,1H3,(H,18,19)/t11-,12+,13-,14+/m0/s1

>  <INCHI_KEY>
GVGYEFKIHJTNQZ-RFQIPJPRSA-N

>  <FORMULA>
C16H19NO4

>  <MOLECULAR_WEIGHT>
289.3264

>  <DRUGBANK_ID>
DB01515

>  <DRUG_GROUPS>
experimental; illicit

>  <GENERIC_NAME>
Benzoylecgonine

>  <SYNONYMS>
(-)-benzoylecgonine; (1R,2R,3S,5S)-8-methyl-3-[(phenylcarbonyl)oxy]-8-azabicyclo[3.2.1]octane-2-carboxylic acid; 3-(Benzoyloxy)-8-methyl-8-azabicyclo[3.2.1]octane-2-carboxylic acid; Ecgonine benzoate; O-benzoyl-(-)-ecgonine; O-benzoylecgonine

$$$$
Compound 65
Actelion Java MolfileCreator 2.0

  0  0  0  0  0  0              0 V3000
M  V30 BEGIN CTAB
M  V30 COUNTS 16 16 0 0 0
M  V30 BEGIN ATOM
M  V30 1 O 0.0 0.0 0.0 0
M  V30 2 C -0.0351 -1.4766 0.0 0
M  V30 3 C 1.2773 0.8086 0.0 0
M  V30 4 C 1.2422 -2.1797 0.0 0
M  V30 5 C -1.3828 -2.1797 0.0 0
M  V30 6 O 2.5195 -1.3828 0.0 0
M  V30 7 C 1.207 -3.6563 0.0 0
M  V30 8 O -2.7305 -1.3828 0.0 0
M  V30 9 C -1.418 -3.6563 0.0 0
M  V30 10 C 3.7969 -2.0859 0.0 0
M  V30 11 C -0.1406 -4.3594 0.0 0
M  V30 12 C -4.0782 -2.0859 0.0 0
M  V30 13 C -0.1757 -5.836 0.0 0
M  V30 14 C -1.5234 -6.5509 0.0 0 CFG=1
M  V30 15 N -1.5586 -8.0275 0.0 0
M  V30 16 C -2.8711 -5.7423 0.0 0
M  V30 END ATOM
M  V30 BEGIN BOND
M  V30 1 1 1 2
M  V30 2 1 1 3
M  V30 3 2 2 4
M  V30 4 1 2 5
M  V30 5 1 4 6
M  V30 6 1 4 7
M  V30 7 1 5 8
M  V30 8 2 5 9
M  V30 9 1 6 10
M  V30 10 2 7 11
M  V30 11 1 8 12
M  V30 12 1 11 13
M  V30 13 1 13 14
M  V30 14 1 14 15 CFG=1
M  V30 15 1 14 16
M  V30 16 1 9 11
M  V30 END BOND
M  V30 BEGIN COLLECTION
M  V30 MDLV30/STERAC1 ATOMS=(1 14)
M  V30 END COLLECTION
M  V30 END CTAB
M  END
>  <SMILES>
COC1=CC(CC(C)N)=CC(OC)=C1OC

>  <INCHI_IDENTIFIER>
InChI=1S/C12H19NO3/c1-8(13)5-9-6-10(14-2)12(16-4)11(7-9)15-3/h6-8H,5,13H2,1-4H3

>  <INCHI_KEY>
WGTASENVNYJZBK-UHFFFAOYSA-N

>  <FORMULA>
C12H19NO3

>  <MOLECULAR_WEIGHT>
225.2842

>  <DRUGBANK_ID>
DB01516

>  <DRUG_GROUPS>
experimental; illicit

>  <GENERIC_NAME>
3,4,5-Trimethoxyamphetamine

>  <SYNONYMS>


$$$$
Compound 66
Actelion Java MolfileCreator 2.0

  0  0  0  0  0  0              0 V3000
M  V30 BEGIN CTAB
M  V30 COUNTS 27 29 0 0 0
M  V30 BEGIN ATOM
M  V30 1 O 0.0 0.0 0.0 0
M  V30 2 C -0.3025 -1.4524 0.0 0
M  V30 3 O -1.8518 -1.4161 0.0 0
M  V30 4 C 0.4236 -2.7232 0.0 0
M  V30 5 C -2.6385 -0.0726 0.0 0
M  V30 6 C 1.5371 -1.7186 0.0 0
M  V30 7 C -0.9198 -3.4494 0.0 0
M  V30 8 C 1.6944 -3.4494 0.0 0
M  V30 9 C -4.1877 -0.0363 0.0 0
M  V30 10 C 1.2345 -0.1936 0.0 0
M  V30 11 C 2.9169 -2.2028 0.0 0
M  V30 12 C -0.9561 -4.9261 0.0 0
M  V30 13 C 1.6581 -4.9261 0.0 0
M  V30 14 C 2.348 0.8109 0.0 0
M  V30 15 C 4.0304 -1.1982 0.0 0
M  V30 16 N 0.3146 -5.6523 0.0 0
M  V30 17 C 3.7278 0.3267 0.0 0
M  V30 18 C 0.2783 -7.1289 0.0 0
M  V30 19 C -1.0651 -7.8672 0.0 0
M  V30 20 O -1.1014 -9.3438 0.0 0
M  V30 21 C -2.4448 -10.07 0.0 0
M  V30 22 C -2.4812 -11.5466 0.0 0
M  V30 23 C -1.2103 -12.2728 0.0 0
M  V30 24 C -3.8246 -12.2728 0.0 0
M  V30 25 C -1.2466 -13.7495 0.0 0
M  V30 26 C -3.861 -13.7495 0.0 0
M  V30 27 C -2.5901 -14.4757 0.0 0
M  V30 END ATOM
M  V30 BEGIN BOND
M  V30 1 2 1 2
M  V30 2 1 2 3
M  V30 3 1 2 4
M  V30 4 1 3 5
M  V30 5 1 4 6
M  V30 6 1 4 7
M  V30 7 1 4 8
M  V30 8 1 5 9
M  V30 9 2 6 10
M  V30 10 1 6 11
M  V30 11 1 7 12
M  V30 12 1 8 13
M  V30 13 1 10 14
M  V30 14 2 11 15
M  V30 15 1 12 16
M  V30 16 2 14 17
M  V30 17 1 16 18
M  V30 18 1 18 19
M  V30 19 1 19 20
M  V30 20 1 20 21
M  V30 21 1 21 22
M  V30 22 2 22 23
M  V30 23 1 22 24
M  V30 24 1 23 25
M  V30 25 2 24 26
M  V30 26 2 25 27
M  V30 27 1 13 16
M  V30 28 1 15 17
M  V30 29 1 26 27
M  V30 END BOND
M  V30 END CTAB
M  END
>  <SMILES>
CCOC(=O)C1(CCN(CCOCC2=CC=CC=C2)CC1)C1=CC=CC=C1

>  <INCHI_IDENTIFIER>
InChI=1S/C23H29NO3/c1-2-27-22(25)23(21-11-7-4-8-12-21)13-15-24(16-14-23)17-18-26-19-20-9-5-3-6-10-20/h3-12H,2,13-19H2,1H3

>  <INCHI_KEY>
UVTBZAWTRVBTMK-UHFFFAOYSA-N

>  <FORMULA>
C23H29NO3

>  <MOLECULAR_WEIGHT>
367.4813

>  <DRUGBANK_ID>
DB01518

>  <DRUG_GROUPS>
experimental; illicit

>  <GENERIC_NAME>
Benzethidine

>  <SYNONYMS>


$$$$
Compound 67
Actelion Java MolfileCreator 2.0

  0  0  0  0  0  0              0 V3000
M  V30 BEGIN CTAB
M  V30 COUNTS 22 25 0 0 0
M  V30 BEGIN ATOM
M  V30 1 Cl 0.0 0.0 0.0 0
M  V30 2 C -0.0379 1.4938 0.0 0
M  V30 3 C -1.4431 2.3166 0.0 0
M  V30 4 C 1.2912 2.3166 0.0 0
M  V30 5 O -2.7471 1.6204 0.0 0
M  V30 6 C -1.4685 3.9371 0.0 0
M  V30 7 C 1.2659 3.8738 0.0 0 CFG=2
M  V30 8 C 2.5698 1.5824 0.0 0
M  V30 9 C -0.1265 4.7473 0.0 0
M  V30 10 C 2.5572 4.6587 0.0 0 CFG=2
M  V30 11 C 1.2406 5.3676 0.0 0
M  V30 12 C 3.8358 2.4053 0.0 0
M  V30 13 C 3.7725 3.9497 0.0 0 CFG=1
M  V30 14 C 2.5192 6.1525 0.0 0
M  V30 15 C 4.9878 4.7346 0.0 0 CFG=1
M  V30 16 C 3.7345 6.9374 0.0 0
M  V30 17 C 4.9498 6.2284 0.0 0 CFG=2
M  V30 18 C 6.3297 4.3168 0.0 0
M  V30 19 C 6.2917 6.7222 0.0 0 CFG=2
M  V30 20 C 4.9118 7.7223 0.0 0
M  V30 21 C 7.1273 5.5195 0.0 0
M  V30 22 O 6.7095 8.14 0.0 0
M  V30 END ATOM
M  V30 BEGIN BOND
M  V30 1 1 1 2
M  V30 2 1 2 3
M  V30 3 2 2 4
M  V30 4 2 3 5
M  V30 5 1 3 6
M  V30 6 1 4 7
M  V30 7 1 4 8
M  V30 8 1 6 9
M  V30 9 1 7 10
M  V30 10 1 7 11 CFG=1
M  V30 11 1 8 12
M  V30 12 1 10 13
M  V30 13 1 10 14 CFG=1
M  V30 14 1 13 15
M  V30 15 1 14 16
M  V30 16 1 15 17
M  V30 17 1 15 18 CFG=1
M  V30 18 1 17 19
M  V30 19 1 17 20 CFG=1
M  V30 20 1 18 21
M  V30 21 1 19 22 CFG=1
M  V30 22 1 7 9
M  V30 23 1 13 12 CFG=3
M  V30 24 1 16 17
M  V30 25 1 19 21
M  V30 END BOND
M  V30 BEGIN COLLECTION
M  V30 MDLV30/STEABS ATOMS=(6 7 10 13 15 17 19)
M  V30 END COLLECTION
M  V30 END CTAB
M  END
>  <SMILES>
[H][C@@]12CC[C@H](O)[C@@]1(C)CC[C@@]1([H])[C@@]2([H])CCC2=C(Cl)C(=O)CC[C@]12C

>  <INCHI_IDENTIFIER>
InChI=1S/C19H27ClO2/c1-18-10-8-15(21)17(20)14(18)4-3-11-12-5-6-16(22)19(12,2)9-7-13(11)18/h11-13,16,22H,3-10H2,1-2H3/t11-,12-,13-,16-,18+,19-/m0/s1

>  <INCHI_KEY>
KCZCIYZKSLLNNH-FBPKJDBXSA-N

>  <FORMULA>
C19H27ClO2

>  <MOLECULAR_WEIGHT>
322.869

>  <DRUGBANK_ID>
DB01521

>  <DRUG_GROUPS>
experimental; illicit

>  <GENERIC_NAME>
Clostebol

>  <SYNONYMS>


$$$$
Compound 68
Actelion Java MolfileCreator 2.0

  0  0  0  0  0  0              0 V3000
M  V30 BEGIN CTAB
M  V30 COUNTS 26 27 0 0 0
M  V30 BEGIN ATOM
M  V30 1 O 0.0 0.0 0.0 0
M  V30 2 C -0.7781 -1.2569 0.0 0
M  V30 3 O -2.3104 -1.221 0.0 0
M  V30 4 C -0.0598 -2.5139 0.0 0
M  V30 5 C -3.0765 0.1077 0.0 0 CFG=2
M  V30 6 C -4.6089 0.1436 0.0 0
M  V30 7 C -2.3583 1.4365 0.0 0
M  V30 8 C -4.6448 1.6759 0.0 0
M  V30 9 C -4.6448 -1.3168 0.0 0
M  V30 10 C -6.1412 0.1795 0.0 0
M  V30 11 C -0.8978 1.4724 0.0 0
M  V30 12 C -5.9736 2.4421 0.0 0
M  V30 13 C -3.3878 2.4421 0.0 0
M  V30 14 C -3.3878 -2.0351 0.0 0
M  V30 15 C -5.9736 -2.0351 0.0 0
M  V30 16 C -7.5777 0.7302 0.0 0 CFG=2
M  V30 17 C -6.0095 3.9744 0.0 0
M  V30 18 C -3.4237 3.9744 0.0 0
M  V30 19 C -3.4237 -3.4955 0.0 0
M  V30 20 C -6.0095 -3.4955 0.0 0
M  V30 21 N -8.7509 -0.1915 0.0 0
M  V30 22 C -7.877 2.2386 0.0 0
M  V30 23 C -4.7525 4.7405 0.0 0
M  V30 24 C -4.7525 -4.2138 0.0 0
M  V30 25 C -10.1874 0.3591 0.0 0
M  V30 26 C -8.5234 -1.628 0.0 0
M  V30 END ATOM
M  V30 BEGIN BOND
M  V30 1 2 1 2
M  V30 2 1 2 3
M  V30 3 1 2 4
M  V30 4 1 5 3 CFG=3
M  V30 5 1 5 6
M  V30 6 1 5 7
M  V30 7 1 6 8
M  V30 8 1 6 9
M  V30 9 1 6 10
M  V30 10 1 7 11
M  V30 11 2 8 12
M  V30 12 1 8 13
M  V30 13 2 9 14
M  V30 14 1 9 15
M  V30 15 1 10 16
M  V30 16 1 12 17
M  V30 17 2 13 18
M  V30 18 1 14 19
M  V30 19 2 15 20
M  V30 20 1 16 21 CFG=3
M  V30 21 1 16 22
M  V30 22 2 17 23
M  V30 23 2 19 24
M  V30 24 1 21 25
M  V30 25 1 21 26
M  V30 26 1 18 23
M  V30 27 1 20 24
M  V30 END BOND
M  V30 BEGIN COLLECTION
M  V30 MDLV30/STEABS ATOMS=(2 5 16)
M  V30 END COLLECTION
M  V30 END CTAB
M  END
>  <SMILES>
CC[C@H](OC(C)=O)C(C[C@@H](C)N(C)C)(C1=CC=CC=C1)C1=CC=CC=C1

>  <INCHI_IDENTIFIER>
InChI=1S/C23H31NO2/c1-6-22(26-19(3)25)23(17-18(2)24(4)5,20-13-9-7-10-14-20)21-15-11-8-12-16-21/h7-16,18,22H,6,17H2,1-5H3/t18-,22+/m1/s1

>  <INCHI_KEY>
XBMIVRRWGCYBTQ-GCJKJVERSA-N

>  <FORMULA>
C23H31NO2

>  <MOLECULAR_WEIGHT>
353.4977

>  <DRUGBANK_ID>
DB01522

>  <DRUG_GROUPS>
experimental; illicit

>  <GENERIC_NAME>
Betacetylmethadol

>  <SYNONYMS>


$$$$
Compound 69
Actelion Java MolfileCreator 2.0

  0  0  0  0  0  0              0 V3000
M  V30 BEGIN CTAB
M  V30 COUNTS 27 29 0 0 0
M  V30 BEGIN ATOM
M  V30 1 Cl 0.0 0.0 0.0 0
M  V30 2 C -0.7592 1.3167 0.0 0
M  V30 3 C -0.0474 2.6335 0.0 0
M  V30 4 C -2.2776 1.3523 0.0 0
M  V30 5 C -0.8185 3.9502 0.0 0
M  V30 6 C -3.0487 2.6691 0.0 0
M  V30 7 C -2.3369 3.9858 0.0 0
M  V30 8 C -3.108 5.3026 0.0 0
M  V30 9 C -4.6264 5.3382 0.0 0
M  V30 10 N -5.5161 4.1875 0.0 0
M  V30 11 N -5.5161 6.56 0.0 0
M  V30 12 C -6.9515 4.6857 0.0 0
M  V30 13 C -6.9515 6.133 0.0 0
M  V30 14 C -5.0891 8.0073 0.0 0
M  V30 15 C -8.2683 3.974 0.0 0
M  V30 16 C -8.2683 6.8922 0.0 0
M  V30 17 C -3.6774 8.3513 0.0 0
M  V30 18 C -9.585 4.7332 0.0 0
M  V30 19 C -9.585 6.1804 0.0 0
M  V30 20 N -3.2503 9.7986 0.0 0
M  V30 21 N -10.9018 4.0214 0.0 0 CHG=1
M  V30 22 C -1.8387 10.1426 0.0 0
M  V30 23 C -4.2705 10.9374 0.0 0
M  V30 24 O -10.9374 2.5742 0.0 0
M  V30 25 O -12.2185 4.7925 0.0 0 CHG=-1
M  V30 26 C -1.4116 11.5898 0.0 0
M  V30 27 C -3.8435 12.3846 0.0 0
M  V30 END ATOM
M  V30 BEGIN BOND
M  V30 1 1 1 2
M  V30 2 2 2 3
M  V30 3 1 2 4
M  V30 4 1 3 5
M  V30 5 2 4 6
M  V30 6 2 5 7
M  V30 7 1 7 8
M  V30 8 1 8 9
M  V30 9 2 9 10
M  V30 10 1 9 11
M  V30 11 1 10 12
M  V30 12 1 11 13
M  V30 13 1 11 14
M  V30 14 1 12 15
M  V30 15 1 13 16
M  V30 16 1 14 17
M  V30 17 2 15 18
M  V30 18 2 16 19
M  V30 19 1 17 20
M  V30 20 1 18 21
M  V30 21 1 20 22
M  V30 22 1 20 23
M  V30 23 2 21 24
M  V30 24 1 21 25
M  V30 25 1 22 26
M  V30 26 1 23 27
M  V30 27 1 6 7
M  V30 28 2 12 13
M  V30 29 1 18 19
M  V30 END BOND
M  V30 END CTAB
M  END
>  <SMILES>
CCN(CC)CCN1C(CC2=CC=C(Cl)C=C2)=NC2=C1C=CC(=C2)[N+]([O-])=O

>  <INCHI_IDENTIFIER>
InChI=1S/C20H23ClN4O2/c1-3-23(4-2)11-12-24-19-10-9-17(25(26)27)14-18(19)22-20(24)13-15-5-7-16(21)8-6-15/h5-10,14H,3-4,11-13H2,1-2H3

>  <INCHI_KEY>
GPZLDQAEBHTMPG-UHFFFAOYSA-N

>  <FORMULA>
C20H23ClN4O2

>  <MOLECULAR_WEIGHT>
386.875

>  <DRUGBANK_ID>
DB01523

>  <DRUG_GROUPS>
experimental; illicit

>  <GENERIC_NAME>
Clonitazene

>  <SYNONYMS>


$$$$
Compound 70
Actelion Java MolfileCreator 2.0

  0  0  0  0  0  0              0 V3000
M  V30 BEGIN CTAB
M  V30 COUNTS 21 24 0 0 0
M  V30 BEGIN ATOM
M  V30 1 O 0.0 0.0 0.0 0
M  V30 2 C 1.2642 0.7826 0.0 0 CFG=1
M  V30 3 C 2.5284 0.0481 0.0 0
M  V30 4 C 1.228 2.3237 0.0 0
M  V30 5 C 3.7926 0.8307 0.0 0
M  V30 6 C 2.4922 3.1063 0.0 0
M  V30 7 C 5.0568 0.0963 0.0 0
M  V30 8 C 3.7564 2.3718 0.0 0 CFG=1
M  V30 9 C 6.321 0.8789 0.0 0
M  V30 10 C 5.0206 3.1544 0.0 0 CFG=1
M  V30 11 C 3.7203 3.913 0.0 0
M  V30 12 C 6.2848 2.42 0.0 0 CFG=1
M  V30 13 C 4.9845 4.6956 0.0 0
M  V30 14 C 7.549 3.2026 0.0 0 CFG=2
M  V30 15 C 6.2487 5.4782 0.0 0
M  V30 16 C 7.5129 4.7437 0.0 0 CFG=1
M  V30 17 C 8.9457 2.7692 0.0 0
M  V30 18 C 8.9096 5.2494 0.0 0 CFG=1
M  V30 19 C 7.6333 6.2728 0.0 0
M  V30 20 C 9.7885 4.0213 0.0 0
M  V30 21 O 9.343 6.7183 0.0 0
M  V30 END ATOM
M  V30 BEGIN BOND
M  V30 1 1 2 1 CFG=3
M  V30 2 1 2 3
M  V30 3 1 2 4
M  V30 4 1 3 5
M  V30 5 1 4 6
M  V30 6 2 5 7
M  V30 7 1 5 8
M  V30 8 1 7 9
M  V30 9 1 8 10
M  V30 10 1 8 11 CFG=3
M  V30 11 1 12 9 CFG=1
M  V30 12 1 10 13 CFG=3
M  V30 13 1 12 14
M  V30 14 1 13 15
M  V30 15 1 14 16
M  V30 16 1 14 17 CFG=3
M  V30 17 1 16 18
M  V30 18 1 16 19 CFG=3
M  V30 19 1 17 20
M  V30 20 1 18 21 CFG=3
M  V30 21 1 6 8
M  V30 22 1 10 12
M  V30 23 1 15 16
M  V30 24 1 18 20
M  V30 END BOND
M  V30 BEGIN COLLECTION
M  V30 MDLV30/STERAC1 ATOMS=(7 2 8 10 12 14 16 18)
M  V30 END COLLECTION
M  V30 END CTAB
M  END
>  <SMILES>
[H][C@@]12CC[C@H](O)[C@@]1(C)CC[C@@]1([H])[C@@]2([H])CC=C2C[C@@H](O)CC[C@]12C

>  <INCHI_IDENTIFIER>
InChI=1S/C19H30O2/c1-18-9-7-13(20)11-12(18)3-4-14-15-5-6-17(21)19(15,2)10-8-16(14)18/h3,13-17,20-21H,4-11H2,1-2H3/t13-,14-,15-,16-,17-,18-,19-/m0/s1

>  <INCHI_KEY>
QADHLRWLCPCEKT-LOVVWNRFSA-N

>  <FORMULA>
C19H30O2

>  <MOLECULAR_WEIGHT>
290.4403

>  <DRUGBANK_ID>
DB01524

>  <DRUG_GROUPS>
experimental; illicit

>  <GENERIC_NAME>
Androstenediol

>  <SYNONYMS>
5-andendiol; 5-androstenediol; androst-5-ene-3beta,17beta-diol; androst-5-enediol; Androstenediol; hermaphrodiol

$$$$
Compound 71
Actelion Java MolfileCreator 2.0

  0  0  0  0  0  0              0 V3000
M  V30 BEGIN CTAB
M  V30 COUNTS 13 14 0 0 0
M  V30 BEGIN ATOM
M  V30 1 O 0.0 0.0 0.0 0
M  V30 2 C -1.0311 0.3788 0.0 0
M  V30 3 O -1.8519 -0.2525 0.0 0
M  V30 4 C -1.3047 1.452 0.0 0 CFG=1
M  V30 5 C -2.3148 1.936 0.0 0 CFG=1
M  V30 6 C 0.2525 2.8199 0.0 0 CFG=2
M  V30 7 O -3.2619 1.4941 0.0 0
M  V30 8 C -2.2728 3.0304 0.0 0
M  V30 9 N -0.2946 4.9244 0.0 0
M  V30 10 C 2.1044 2.1044 0.0 0
M  V30 11 C 0.3788 3.9142 0.0 0 CFG=1
M  V30 12 C -0.8628 5.8714 0.0 0
M  V30 13 C 2.3148 3.1566 0.0 0
M  V30 END ATOM
M  V30 BEGIN BOND
M  V30 1 2 1 2
M  V30 2 1 2 3
M  V30 3 1 4 2 CFG=1
M  V30 4 1 4 5
M  V30 5 1 4 6
M  V30 6 1 5 7 CFG=1
M  V30 7 1 5 8
M  V30 8 1 6 9 CFG=3
M  V30 9 1 6 10
M  V30 10 1 8 11
M  V30 11 1 9 12
M  V30 12 1 10 13
M  V30 13 1 11 9 CFG=1
M  V30 14 1 11 13
M  V30 END BOND
M  V30 BEGIN COLLECTION
M  V30 MDLV30/STEABS ATOMS=(4 4 5 6 11)
M  V30 END COLLECTION
M  V30 END CTAB
M  END
>  <SMILES>
[H][C@]12CC[C@]([H])([C@H]([C@@H](O)C1)C(O)=O)N2C

>  <INCHI_IDENTIFIER>
InChI=1S/C9H15NO3/c1-10-5-2-3-6(10)8(9(12)13)7(11)4-5/h5-8,11H,2-4H2,1H3,(H,12,13)/t5-,6+,7-,8+/m0/s1

>  <INCHI_KEY>
PHMBVCPLDPDESM-FKSUSPILSA-N

>  <FORMULA>
C9H15NO3

>  <MOLECULAR_WEIGHT>
185.2203

>  <DRUGBANK_ID>
DB01525

>  <DRUG_GROUPS>
experimental; illicit

>  <GENERIC_NAME>
Ecgonine

>  <SYNONYMS>


$$$$
Compound 72
Actelion Java MolfileCreator 2.0

  0  0  0  0  0  0              0 V3000
M  V30 BEGIN CTAB
M  V30 COUNTS 21 24 0 0 0
M  V30 BEGIN ATOM
M  V30 1 O 0.0 0.0 0.0 0
M  V30 2 C 1.2355 0.7769 0.0 0 CFG=2
M  V30 3 C 2.5729 0.0 0.0 0
M  V30 4 C 1.21 2.4073 0.0 0
M  V30 5 C 3.8976 0.8279 0.0 0
M  V30 6 C 2.5602 3.2225 0.0 0
M  V30 7 C 3.8721 2.3946 0.0 0 CFG=2
M  V30 8 C 5.184 0.0891 0.0 0
M  V30 9 C 5.1713 3.1843 0.0 0 CFG=2
M  V30 10 C 3.8466 3.8976 0.0 0
M  V30 11 C 6.4578 0.9043 0.0 0
M  V30 12 C 6.3941 2.471 0.0 0 CFG=1
M  V30 13 C 5.1331 4.6873 0.0 0
M  V30 14 C 7.6169 3.2607 0.0 0 CFG=1
M  V30 15 C 6.3559 5.477 0.0 0
M  V30 16 C 7.5787 4.7637 0.0 0 CFG=2
M  V30 17 C 8.967 2.8404 0.0 0
M  V30 18 C 8.9288 5.2605 0.0 0 CFG=2
M  V30 19 C 7.5405 6.2667 0.0 0
M  V30 20 C 9.7695 4.0504 0.0 0
M  V30 21 O 9.3492 6.6871 0.0 0
M  V30 END ATOM
M  V30 BEGIN BOND
M  V30 1 1 2 1 CFG=1
M  V30 2 1 2 3
M  V30 3 1 2 4
M  V30 4 2 3 5
M  V30 5 1 4 6
M  V30 6 1 5 7
M  V30 7 1 5 8
M  V30 8 1 7 9
M  V30 9 1 7 10 CFG=1
M  V30 10 1 8 11
M  V30 11 1 9 12
M  V30 12 1 9 13 CFG=1
M  V30 13 1 12 14
M  V30 14 1 13 15
M  V30 15 1 14 16
M  V30 16 1 14 17 CFG=1
M  V30 17 1 16 18
M  V30 18 1 16 19 CFG=1
M  V30 19 1 17 20
M  V30 20 1 18 21 CFG=1
M  V30 21 1 6 7
M  V30 22 1 12 11 CFG=3
M  V30 23 1 15 16
M  V30 24 1 18 20
M  V30 END BOND
M  V30 BEGIN COLLECTION
M  V30 MDLV30/STEABS ATOMS=(7 2 7 9 12 14 16 18)
M  V30 END COLLECTION
M  V30 END CTAB
M  END
>  <SMILES>
[H][C@@]12CC[C@H](O)[C@@]1(C)CC[C@@]1([H])[C@@]2([H])CCC2=C[C@@H](O)CC[C@]12C

>  <INCHI_IDENTIFIER>
InChI=1S/C19H30O2/c1-18-9-7-13(20)11-12(18)3-4-14-15-5-6-17(21)19(15,2)10-8-16(14)18/h11,13-17,20-21H,3-10H2,1-2H3/t13-,14-,15-,16-,17-,18-,19-/m0/s1

>  <INCHI_KEY>
BTTWKVFKBPAFDK-LOVVWNRFSA-N

>  <FORMULA>
C19H30O2

>  <MOLECULAR_WEIGHT>
290.4403

>  <DRUGBANK_ID>
DB01526

>  <DRUG_GROUPS>
experimental; illicit

>  <GENERIC_NAME>
4-Androstenediol

>  <SYNONYMS>


$$$$
Compound 73
Actelion Java MolfileCreator 2.0

  0  0  0  0  0  0              0 V3000
M  V30 BEGIN CTAB
M  V30 COUNTS 15 15 0 0 0
M  V30 BEGIN ATOM
M  V30 1 O 0.0 0.0 0.0 0
M  V30 2 C 1.2801 -0.7315 0.0 0
M  V30 3 C -1.3533 -0.7315 0.0 0
M  V30 4 C 2.5603 0.0487 0.0 0
M  V30 5 C 1.2436 -2.219 0.0 0
M  V30 6 C 3.8405 -0.6827 0.0 0
M  V30 7 C 2.5238 1.6093 0.0 0
M  V30 8 C 2.5238 -2.9505 0.0 0
M  V30 9 C 3.804 -2.1702 0.0 0
M  V30 10 C 3.804 2.3896 0.0 0 CFG=1
M  V30 11 C 2.4872 -4.438 0.0 0
M  V30 12 O 5.0842 -2.9017 0.0 0
M  V30 13 N 3.7674 3.9503 0.0 0
M  V30 14 C 5.0842 1.6581 0.0 0
M  V30 15 C 6.3643 -2.1092 0.0 0
M  V30 END ATOM
M  V30 BEGIN BOND
M  V30 1 1 1 2
M  V30 2 1 1 3
M  V30 3 2 2 4
M  V30 4 1 2 5
M  V30 5 1 4 6
M  V30 6 1 4 7
M  V30 7 2 5 8
M  V30 8 2 6 9
M  V30 9 1 7 10
M  V30 10 1 8 11
M  V30 11 1 9 12
M  V30 12 1 10 13 CFG=1
M  V30 13 1 10 14
M  V30 14 1 12 15
M  V30 15 1 8 9
M  V30 END BOND
M  V30 BEGIN COLLECTION
M  V30 MDLV30/STERAC1 ATOMS=(1 10)
M  V30 END COLLECTION
M  V30 END CTAB
M  END
>  <SMILES>
COC1=CC(CC(C)N)=C(OC)C=C1C

>  <INCHI_IDENTIFIER>
InChI=1S/C12H19NO2/c1-8-5-12(15-4)10(6-9(2)13)7-11(8)14-3/h5,7,9H,6,13H2,1-4H3

>  <INCHI_KEY>
NTJQREUGJKIARY-UHFFFAOYSA-N

>  <FORMULA>
C12H19NO2

>  <MOLECULAR_WEIGHT>
209.2848

>  <DRUGBANK_ID>
DB01528

>  <DRUG_GROUPS>
experimental; illicit

>  <GENERIC_NAME>
4-Methyl-2,5-dimethoxyamphetamine

>  <SYNONYMS>
STP

$$$$
Compound 74
Actelion Java MolfileCreator 2.0

  0  0  0  0  0  0              0 V3000
M  V30 BEGIN CTAB
M  V30 COUNTS 29 32 0 0 0
M  V30 BEGIN ATOM
M  V30 1 O 0.0 0.0 0.0 0
M  V30 2 C -1.3027 -0.7183 0.0 0
M  V30 3 N -2.6907 0.0608 0.0 0
M  V30 4 C -1.3392 -2.2036 0.0 0
M  V30 5 C -2.8368 1.6071 0.0 0
M  V30 6 C -4.0908 -0.4991 0.0 0
M  V30 7 C -2.8976 -2.1671 0.0 0
M  V30 8 C -1.3757 -3.6403 0.0 0
M  V30 9 C 0.0974 -2.1671 0.0 0 CFG=2
M  V30 10 C -4.3952 1.9236 0.0 0
M  V30 11 C -5.077 0.6087 0.0 0
M  V30 12 C -3.7255 -3.4212 0.0 0
M  V30 13 C -3.7255 -0.84 0.0 0
M  V30 14 C -0.1461 -4.4073 0.0 0
M  V30 15 C -2.7515 -4.4073 0.0 0
M  V30 16 C 0.8279 -0.84 0.0 0
M  V30 17 C 0.84 -3.4212 0.0 0
M  V30 18 C -5.2109 -3.3846 0.0 0
M  V30 19 C -5.2109 -0.8035 0.0 0
M  V30 20 C -0.1826 -5.844 0.0 0
M  V30 21 C -2.7881 -5.844 0.0 0
M  V30 22 N 2.3132 -0.8035 0.0 0
M  V30 23 C -6.0145 -2.0575 0.0 0
M  V30 24 C -1.4853 -6.5623 0.0 0
M  V30 25 C 3.0316 -2.0575 0.0 0
M  V30 26 C 3.0316 0.5965 0.0 0
M  V30 27 C 4.5169 -2.021 0.0 0
M  V30 28 C 4.5169 0.6331 0.0 0
M  V30 29 O 5.1987 -0.6939 0.0 0
M  V30 END ATOM
M  V30 BEGIN BOND
M  V30 1 2 1 2
M  V30 2 1 2 3
M  V30 3 1 2 4
M  V30 4 1 3 5
M  V30 5 1 3 6
M  V30 6 1 4 7
M  V30 7 1 4 8
M  V30 8 1 4 9
M  V30 9 1 5 10
M  V30 10 1 6 11
M  V30 11 2 7 12
M  V30 12 1 7 13
M  V30 13 2 8 14
M  V30 14 1 8 15
M  V30 15 1 9 16
M  V30 16 1 9 17 CFG=3
M  V30 17 1 12 18
M  V30 18 2 13 19
M  V30 19 1 14 20
M  V30 20 2 15 21
M  V30 21 1 16 22
M  V30 22 2 18 23
M  V30 23 2 20 24
M  V30 24 1 22 25
M  V30 25 1 22 26
M  V30 26 1 25 27
M  V30 27 1 26 28
M  V30 28 1 27 29
M  V30 29 1 10 11
M  V30 30 1 19 23
M  V30 31 1 21 24
M  V30 32 1 28 29
M  V30 END BOND
M  V30 BEGIN COLLECTION
M  V30 MDLV30/STERAC1 ATOMS=(1 9)
M  V30 END COLLECTION
M  V30 END CTAB
M  END
>  <SMILES>
C[C@H](CN1CCOCC1)C(C(=O)N1CCCC1)(C1=CC=CC=C1)C1=CC=CC=C1

>  <INCHI_IDENTIFIER>
InChI=1S/C25H32N2O2/c1-21(20-26-16-18-29-19-17-26)25(22-10-4-2-5-11-22,23-12-6-3-7-13-23)24(28)27-14-8-9-15-27/h2-7,10-13,21H,8-9,14-20H2,1H3/t21-/m1/s1

>  <INCHI_KEY>
INUNXTSAACVKJS-OAQYLSRUSA-N

>  <FORMULA>
C25H32N2O2

>  <MOLECULAR_WEIGHT>
392.543

>  <DRUGBANK_ID>
DB01529

>  <DRUG_GROUPS>
experimental; illicit

>  <GENERIC_NAME>
Dextromoramide

>  <SYNONYMS>
(+)-1-(3-methyl-4-morpholino-2,2-diphenylbutyryl)pyrrolidine; (+)-4-(2-methyl-4-oxo-3,3-diphenyl-4-(1-pyrrolidinyl)butyl)morpholine; 1-((3S)-3-methyl-4-(4-morpholinyl)-1-oxo-2,2-diphenylbutyl)pyrrolidine; 4-(2-methyl-4-oxo-3,3-diphenyl-4-(1-pyrrolidinyl)butyl)morpholine; D-2,2-diphenyl-3-methyl-4-morpholinobutyrylpyrrolidine; dextromoramida; Dextromoramide; dextromoramidum; palphium; Pyrrolamidol

$$$$
Compound 75
Actelion Java MolfileCreator 2.0

  0  0  0  0  0  0              0 V3000
M  V30 BEGIN CTAB
M  V30 COUNTS 21 24 0 0 0
M  V30 BEGIN ATOM
M  V30 1 O 0.0 0.0 0.0 0
M  V30 2 C -1.4862 0.2948 0.0 0 CFG=1
M  V30 3 C -2.4652 -0.7902 0.0 0
M  V30 4 C -2.0287 1.7103 0.0 0
M  V30 5 C -3.9514 -0.4954 0.0 0 CFG=1
M  V30 6 C -3.515 2.0052 0.0 0
M  V30 7 C -4.494 0.92 0.0 0 CFG=2
M  V30 8 C -4.9304 -1.5805 0.0 0
M  V30 9 C -5.9802 1.2149 0.0 0 CFG=2
M  V30 10 C -5.0365 2.3354 0.0 0
M  V30 11 C -6.4166 -1.2856 0.0 0
M  V30 12 C -6.9592 0.1297 0.0 0 CFG=1
M  V30 13 C -6.5228 2.6303 0.0 0
M  V30 14 C -8.4454 0.4246 0.0 0 CFG=1
M  V30 15 C -8.009 2.9252 0.0 0
M  V30 16 C -8.988 1.84 0.0 0 CFG=2
M  V30 17 C -9.6367 -0.4364 0.0 0
M  V30 18 C -10.4978 1.8282 0.0 0 CFG=2
M  V30 19 C -9.6721 3.1965 0.0 0
M  V30 20 C -10.887 0.4128 0.0 0
M  V30 21 O -11.4296 3.0195 0.0 0
M  V30 END ATOM
M  V30 BEGIN BOND
M  V30 1 1 2 1 CFG=1
M  V30 2 1 2 3
M  V30 3 1 2 4
M  V30 4 1 5 3 CFG=3
M  V30 5 1 4 6
M  V30 6 1 5 7
M  V30 7 1 5 8
M  V30 8 1 7 9
M  V30 9 1 7 10 CFG=3
M  V30 10 1 8 11
M  V30 11 1 9 12
M  V30 12 1 9 13 CFG=3
M  V30 13 1 12 14
M  V30 14 1 13 15
M  V30 15 1 14 16
M  V30 16 1 14 17 CFG=3
M  V30 17 1 16 18
M  V30 18 1 16 19 CFG=3
M  V30 19 1 17 20
M  V30 20 1 18 21 CFG=3
M  V30 21 1 6 7
M  V30 22 1 12 11 CFG=1
M  V30 23 1 15 16
M  V30 24 1 18 20
M  V30 END BOND
M  V30 BEGIN COLLECTION
M  V30 MDLV30/STERAC1 ATOMS=(8 2 5 7 9 12 14 16 18)
M  V30 END COLLECTION
M  V30 END CTAB
M  END
>  <SMILES>
[H][C@]1(O)CC[C@@]2([H])[C@]3([H])CC[C@@]4([H])C[C@]([H])(O)CC[C@]4(C)[C@@]3([H])CC[C@]12C

>  <INCHI_IDENTIFIER>
InChI=1S/C19H32O2/c1-18-9-7-13(20)11-12(18)3-4-14-15-5-6-17(21)19(15,2)10-8-16(14)18/h12-17,20-21H,3-11H2,1-2H3/t12-,13+,14-,15-,16-,17-,18-,19-/m0/s1

>  <INCHI_KEY>
CBMYJHIOYJEBSB-KHOSGYARSA-N

>  <FORMULA>
C19H32O2

>  <MOLECULAR_WEIGHT>
292.4562

>  <DRUGBANK_ID>
DB01530

>  <DRUG_GROUPS>
experimental; illicit

>  <GENERIC_NAME>
5alpha-androstane-3alpha,17beta-diol

>  <SYNONYMS>
17beta-dihydroandrosterone; 3alpha-androstanediol; 3alpha,17beta-dihydroxy-5alpha-androstane; 3α,17β-dihydroxy-5α-androstane; Dihydroandrosterone; hombreol

$$$$
Compound 76
Actelion Java MolfileCreator 2.0

  0  0  0  0  0  0              0 V3000
M  V30 BEGIN CTAB
M  V30 COUNTS 20 24 0 0 0
M  V30 BEGIN ATOM
M  V30 1 O 0.0 0.0 0.0 0
M  V30 2 C -1.4106 0.9212 0.0 0
M  V30 3 C 1.4682 0.9212 0.0 0 CFG=2
M  V30 4 C -2.9076 0.9644 0.0 0
M  V30 5 C -0.7341 2.2023 0.0 0
M  V30 6 C 0.6909 2.2023 0.0 0 CFG=2
M  V30 7 C 2.8789 0.9356 0.0 0
M  V30 8 O -3.7137 -0.2734 0.0 0
M  V30 9 C -3.6993 2.2455 0.0 0
M  V30 10 C -1.497 3.4978 0.0 0
M  V30 11 C 1.3962 3.4978 0.0 0 CFG=2
M  V30 12 C -0.1151 3.4978 0.0 0
M  V30 13 C 3.5986 2.2311 0.0 0
M  V30 14 C -2.994 3.541 0.0 0
M  V30 15 C -0.8204 4.7933 0.0 0
M  V30 16 C 0.5613 4.7933 0.0 0 CFG=1
M  V30 17 C 2.8069 3.541 0.0 0
M  V30 18 C -0.1583 5.3403 0.0 0
M  V30 19 N 0.5613 6.2904 0.0 0
M  V30 20 C 1.2667 7.6146 0.0 0
M  V30 END ATOM
M  V30 BEGIN BOND
M  V30 1 1 1 2
M  V30 2 1 3 1 CFG=3
M  V30 3 2 2 4
M  V30 4 1 2 5
M  V30 5 1 3 6
M  V30 6 1 3 7
M  V30 7 1 4 8
M  V30 8 1 4 9
M  V30 9 2 5 10
M  V30 10 1 6 11
M  V30 11 1 6 12 CFG=1
M  V30 12 1 7 13
M  V30 13 2 9 14
M  V30 14 1 10 15
M  V30 15 1 11 16
M  V30 16 1 11 17 CFG=3
M  V30 17 1 12 18
M  V30 18 1 16 19 CFG=1
M  V30 19 1 19 20
M  V30 20 1 5 6
M  V30 21 1 10 14
M  V30 22 1 13 17
M  V30 23 1 15 16
M  V30 24 1 18 19
M  V30 END BOND
M  V30 BEGIN COLLECTION
M  V30 MDLV30/STERAC1 ATOMS=(4 3 6 11 16)
M  V30 END COLLECTION
M  V30 END CTAB
M  END
>  <SMILES>
[H][C@@]12CCC[C@@]3([H])[C@@]4([H])CC5=CC=C(O)C(O1)=C5[C@@]23CCN4C

>  <INCHI_IDENTIFIER>
InChI=1S/C17H21NO2/c1-18-8-7-17-11-3-2-4-14(17)20-16-13(19)6-5-10(15(16)17)9-12(11)18/h5-6,11-12,14,19H,2-4,7-9H2,1H3/t11-,12+,14-,17+/m0/s1

>  <INCHI_KEY>
LNNWVNGFPYWNQE-GMIGKAJZSA-N

>  <FORMULA>
C17H21NO2

>  <MOLECULAR_WEIGHT>
271.36

>  <DRUGBANK_ID>
DB01531

>  <DRUG_GROUPS>
experimental; illicit

>  <GENERIC_NAME>
Desomorphine

>  <SYNONYMS>
4,5-epoxy-3-hydroxy-n-methylmorphinan; 6-deoxy-7,8-dihydromorphine; Deoxydihydromorphine D; Dihydrodeoxymorphine; Dihydrodesoxymorphine D

$$$$
Compound 77
Actelion Java MolfileCreator 2.0

  0  0  0  0  0  0              0 V3000
M  V30 BEGIN CTAB
M  V30 COUNTS 25 27 0 0 0
M  V30 BEGIN ATOM
M  V30 1 O 0.0 0.0 0.0 0
M  V30 2 C 1.2756 0.7775 0.0 0
M  V30 3 N 2.5513 0.0485 0.0 0
M  V30 4 C 1.2392 2.3326 0.0 0
M  V30 5 C 3.8269 0.8382 0.0 0
M  V30 6 C 2.5148 -1.4335 0.0 0
M  V30 7 C 3.7905 2.3933 0.0 0
M  V30 8 C 5.1026 0.1093 0.0 0
M  V30 9 C 1.1663 -2.1746 0.0 0
M  V30 10 C 3.7905 -2.1746 0.0 0
M  V30 11 C 5.0661 3.183 0.0 0
M  V30 12 C 6.3782 0.899 0.0 0
M  V30 13 C 1.1298 -3.6568 0.0 0
M  V30 14 C 3.754 -3.6568 0.0 0
M  V30 15 C 6.3418 2.4419 0.0 0
M  V30 16 N 2.4055 -4.3979 0.0 0
M  V30 17 C 2.369 -5.8801 0.0 0 CFG=2
M  V30 18 C 1.0205 -6.6212 0.0 0
M  V30 19 C 3.6447 -6.6212 0.0 0
M  V30 20 C 0.984 -8.1034 0.0 0
M  V30 21 C 2.2597 -8.8324 0.0 0
M  V30 22 C -0.3644 -8.8324 0.0 0
M  V30 23 C 2.2232 -10.3145 0.0 0
M  V30 24 C -0.4009 -10.3145 0.0 0
M  V30 25 C 0.8747 -11.0556 0.0 0
M  V30 END ATOM
M  V30 BEGIN BOND
M  V30 1 2 1 2
M  V30 2 1 2 3
M  V30 3 1 2 4
M  V30 4 1 3 5
M  V30 5 1 3 6
M  V30 6 2 5 7
M  V30 7 1 5 8
M  V30 8 1 6 9
M  V30 9 1 6 10
M  V30 10 1 7 11
M  V30 11 2 8 12
M  V30 12 1 9 13
M  V30 13 1 10 14
M  V30 14 2 11 15
M  V30 15 1 13 16
M  V30 16 1 17 16 CFG=1
M  V30 17 1 17 18
M  V30 18 1 17 19
M  V30 19 1 18 20
M  V30 20 2 20 21
M  V30 21 1 20 22
M  V30 22 1 21 23
M  V30 23 2 22 24
M  V30 24 2 23 25
M  V30 25 1 12 15
M  V30 26 1 14 16
M  V30 27 1 24 25
M  V30 END BOND
M  V30 BEGIN COLLECTION
M  V30 MDLV30/STERAC1 ATOMS=(1 17)
M  V30 END COLLECTION
M  V30 END CTAB
M  END
>  <SMILES>
CC(CC1=CC=CC=C1)N1CCC(CC1)N(C(C)=O)C1=CC=CC=C1

>  <INCHI_IDENTIFIER>
InChI=1S/C22H28N2O/c1-18(17-20-9-5-3-6-10-20)23-15-13-22(14-16-23)24(19(2)25)21-11-7-4-8-12-21/h3-12,18,22H,13-17H2,1-2H3

>  <INCHI_KEY>
OKTLVZBUKMRPLL-UHFFFAOYSA-N

>  <FORMULA>
C22H28N2O

>  <MOLECULAR_WEIGHT>
336.4705

>  <DRUGBANK_ID>
DB01532

>  <DRUG_GROUPS>
illicit

>  <GENERIC_NAME>
α-Methylacetylfentanyl

>  <SYNONYMS>
Acetyl-alpha-methylfentanyl; alphamethylacetylfentanyl

$$$$
Compound 78
Actelion Java MolfileCreator 2.0

  0  0  0  0  0  0              0 V3000
M  V30 BEGIN CTAB
M  V30 COUNTS 19 20 0 0 0
M  V30 BEGIN ATOM
M  V30 1 S 0.0 0.0 0.0 0
M  V30 2 C -1.3951 0.6558 0.0 0
M  V30 3 C 0.9539 1.1327 0.0 0
M  V30 4 C -2.7186 -0.0596 0.0 0
M  V30 5 C -1.2758 2.1701 0.0 0
M  V30 6 C 0.1788 2.4563 0.0 0
M  V30 7 C -2.7544 -1.5143 0.0 0
M  V30 8 C -4.0422 0.7035 0.0 0
M  V30 9 S -3.9945 -2.349 0.0 0
M  V30 10 C -1.5858 -2.349 0.0 0
M  V30 11 C -4.0779 2.2297 0.0 0 CFG=1
M  V30 12 C -3.5652 -3.7322 0.0 0
M  V30 13 C -2.0866 -3.7322 0.0 0
M  V30 14 N -5.4015 3.0048 0.0 0
M  V30 15 C -2.8259 3.0048 0.0 0
M  V30 16 C -6.7251 2.2894 0.0 0
M  V30 17 C -5.4373 4.5311 0.0 0
M  V30 18 C -8.0486 3.0525 0.0 0
M  V30 19 C -6.7608 5.3061 0.0 0
M  V30 END ATOM
M  V30 BEGIN BOND
M  V30 1 1 1 2
M  V30 2 1 1 3
M  V30 3 1 2 4
M  V30 4 2 2 5
M  V30 5 2 3 6
M  V30 6 1 4 7
M  V30 7 2 4 8
M  V30 8 1 7 9
M  V30 9 2 7 10
M  V30 10 1 8 11
M  V30 11 1 9 12
M  V30 12 1 10 13
M  V30 13 1 11 14 CFG=1
M  V30 14 1 11 15
M  V30 15 1 14 16
M  V30 16 1 14 17
M  V30 17 1 16 18
M  V30 18 1 17 19
M  V30 19 1 5 6
M  V30 20 2 12 13
M  V30 END BOND
M  V30 BEGIN COLLECTION
M  V30 MDLV30/STERAC1 ATOMS=(1 11)
M  V30 END COLLECTION
M  V30 END CTAB
M  END
>  <SMILES>
CCN(CC)C(C)C=C(C1=CC=CS1)C1=CC=CS1

>  <INCHI_IDENTIFIER>
InChI=1S/C16H21NS2/c1-4-17(5-2)13(3)12-14(15-8-6-10-18-15)16-9-7-11-19-16/h6-13H,4-5H2,1-3H3

>  <INCHI_KEY>
CBYWMRHUUVRIAF-UHFFFAOYSA-N

>  <FORMULA>
C16H21NS2

>  <MOLECULAR_WEIGHT>
291.475

>  <DRUGBANK_ID>
DB01533

>  <DRUG_GROUPS>
experimental; illicit

>  <GENERIC_NAME>
Diethylthiambutene

>  <SYNONYMS>


$$$$
Compound 79
Actelion Java MolfileCreator 2.0

  0  0  0  0  0  0              0 V3000
M  V30 BEGIN CTAB
M  V30 COUNTS 14 13 0 0 0
M  V30 BEGIN ATOM
M  V30 1 Cl 0.0 0.0 0.0 0
M  V30 2 C -1.3275 -0.7042 0.0 0
M  V30 3 Cl -0.6233 -1.9625 0.0 0
M  V30 4 Cl -2.1126 0.6233 0.0 0
M  V30 5 C -2.6551 -1.4084 0.0 0
M  V30 6 O -3.9827 -0.6118 0.0 0
M  V30 7 O -2.6898 -2.8629 0.0 0
M  V30 8 C -5.3103 -1.316 0.0 0
M  V30 9 C -6.6379 -0.5194 0.0 0
M  V30 10 C -5.345 -2.7706 0.0 0
M  V30 11 C -7.9655 -1.2467 0.0 0
M  V30 12 O -9.2931 -1.9509 0.0 0
M  V30 13 C -8.7505 0.0808 0.0 0
M  V30 14 C -7.2613 -2.5051 0.0 0
M  V30 END ATOM
M  V30 BEGIN BOND
M  V30 1 1 1 2
M  V30 2 1 2 3
M  V30 3 1 2 4
M  V30 4 1 2 5
M  V30 5 1 5 6
M  V30 6 1 5 7
M  V30 7 1 6 8
M  V30 8 1 8 9
M  V30 9 1 8 10
M  V30 10 1 9 11
M  V30 11 1 11 12
M  V30 12 1 11 13
M  V30 13 1 11 14
M  V30 END BOND
M  V30 END CTAB
M  END
>  <SMILES>
CC(CC(C)(C)O)OC(O)C(Cl)(Cl)Cl

>  <INCHI_IDENTIFIER>
InChI=1S/C8H15Cl3O3/c1-5(4-7(2,3)13)14-6(12)8(9,10)11/h5-6,12-13H,4H2,1-3H3

>  <INCHI_KEY>
QVFWZNCVPCJQOP-UHFFFAOYSA-N

>  <FORMULA>
C8H15Cl3O3

>  <MOLECULAR_WEIGHT>
265.562

>  <DRUGBANK_ID>
DB01534

>  <DRUG_GROUPS>
experimental; illicit

>  <GENERIC_NAME>
Chlorhexadol

>  <SYNONYMS>
Chloralodol; Chloralodolum; Cloralodol

$$$$
Compound 80
Actelion Java MolfileCreator 2.0

  0  0  0  0  0  0              0 V3000
M  V30 BEGIN CTAB
M  V30 COUNTS 21 24 0 0 0
M  V30 BEGIN ATOM
M  V30 1 O 0.0 0.0 0.0 0
M  V30 2 C 1.2352 0.7767 0.0 0
M  V30 3 C 2.5723 0.0127 0.0 0
M  V30 4 C 1.2097 2.4067 0.0 0
M  V30 5 C 3.9094 0.8404 0.0 0
M  V30 6 C 2.5595 3.2217 0.0 0
M  V30 7 C 3.8839 2.4067 0.0 0 CFG=2
M  V30 8 C 5.1956 0.1018 0.0 0
M  V30 9 C 5.1828 3.1963 0.0 0 CFG=2
M  V30 10 C 3.8584 3.9094 0.0 0
M  V30 11 C 6.469 0.9168 0.0 0
M  V30 12 C 6.4053 2.4831 0.0 0 CFG=1
M  V30 13 C 5.1446 4.6989 0.0 0
M  V30 14 C 7.6278 3.2727 0.0 0 CFG=1
M  V30 15 C 6.3671 5.4884 0.0 0
M  V30 16 C 7.5896 4.7753 0.0 0 CFG=2
M  V30 17 C 8.9776 2.8524 0.0 0
M  V30 18 C 8.9394 5.272 0.0 0
M  V30 19 C 7.5514 6.278 0.0 0
M  V30 20 C 9.7799 4.0622 0.0 0
M  V30 21 O 9.3597 6.6982 0.0 0
M  V30 END ATOM
M  V30 BEGIN BOND
M  V30 1 2 1 2
M  V30 2 1 2 3
M  V30 3 1 2 4
M  V30 4 2 3 5
M  V30 5 1 4 6
M  V30 6 1 5 7
M  V30 7 1 5 8
M  V30 8 1 7 9
M  V30 9 1 7 10 CFG=1
M  V30 10 1 8 11
M  V30 11 1 9 12
M  V30 12 1 9 13 CFG=1
M  V30 13 1 12 14
M  V30 14 1 13 15
M  V30 15 1 14 16
M  V30 16 1 14 17 CFG=1
M  V30 17 1 16 18
M  V30 18 1 16 19 CFG=1
M  V30 19 1 17 20
M  V30 20 2 18 21
M  V30 21 1 6 7
M  V30 22 1 12 11 CFG=3
M  V30 23 1 15 16
M  V30 24 1 18 20
M  V30 END BOND
M  V30 BEGIN COLLECTION
M  V30 MDLV30/STEABS ATOMS=(5 7 9 12 14 16)
M  V30 END COLLECTION
M  V30 END CTAB
M  END
>  <SMILES>
[H][C@@]12CCC(=O)[C@@]1(C)CC[C@@]1([H])[C@@]2([H])CCC2=CC(=O)CC[C@]12C

>  <INCHI_IDENTIFIER>
InChI=1S/C19H26O2/c1-18-9-7-13(20)11-12(18)3-4-14-15-5-6-17(21)19(15,2)10-8-16(14)18/h11,14-16H,3-10H2,1-2H3/t14-,15-,16-,18-,19-/m0/s1

>  <INCHI_KEY>
AEMFNILZOJDQLW-QAGGRKNESA-N

>  <FORMULA>
C19H26O2

>  <MOLECULAR_WEIGHT>
286.4085

>  <DRUGBANK_ID>
DB01536

>  <DRUG_GROUPS>
experimental; illicit

>  <GENERIC_NAME>
Androstenedione

>  <SYNONYMS>
4-Androstene-3,17-dione; 4-Androstenedione; Androst-4-ene-3,17-dione; Androstenedione; delta-4-Androstenedione

$$$$
Compound 81
Actelion Java MolfileCreator 2.0

  0  0  0  0  0  0              0 V3000
M  V30 BEGIN CTAB
M  V30 COUNTS 14 14 0 0 0
M  V30 BEGIN ATOM
M  V30 1 Br 0.0 0.0 0.0 0
M  V30 2 C -0.0356 1.521 0.0 0
M  V30 3 C 1.2121 2.2935 0.0 0
M  V30 4 C -1.3547 2.2935 0.0 0
M  V30 5 O 2.4598 1.5805 0.0 0
M  V30 6 C 1.1764 3.8146 0.0 0
M  V30 7 C -1.3903 3.8146 0.0 0
M  V30 8 C 3.7076 2.3529 0.0 0
M  V30 9 C -0.1426 4.587 0.0 0
M  V30 10 O -2.7094 4.587 0.0 0
M  V30 11 C -0.1782 6.1081 0.0 0
M  V30 12 C -4.0285 3.874 0.0 0
M  V30 13 C 1.0695 6.8805 0.0 0
M  V30 14 N 1.0338 8.4016 0.0 0
M  V30 END ATOM
M  V30 BEGIN BOND
M  V30 1 1 1 2
M  V30 2 2 2 3
M  V30 3 1 2 4
M  V30 4 1 3 5
M  V30 5 1 3 6
M  V30 6 2 4 7
M  V30 7 1 5 8
M  V30 8 2 6 9
M  V30 9 1 7 10
M  V30 10 1 9 11
M  V30 11 1 10 12
M  V30 12 1 11 13
M  V30 13 1 13 14
M  V30 14 1 7 9
M  V30 END BOND
M  V30 END CTAB
M  END
>  <SMILES>
COC1=CC(Br)=C(OC)C=C1CCN

>  <INCHI_IDENTIFIER>
InChI=1S/C10H14BrNO2/c1-13-9-6-8(11)10(14-2)5-7(9)3-4-12/h5-6H,3-4,12H2,1-2H3

>  <INCHI_KEY>
YMHOBZXQZVXHBM-UHFFFAOYSA-N

>  <FORMULA>
C10H14BrNO2

>  <MOLECULAR_WEIGHT>
260.128

>  <DRUGBANK_ID>
DB01537

>  <DRUG_GROUPS>
experimental; illicit

>  <GENERIC_NAME>
4-Bromo-2,5-dimethoxyphenethylamine

>  <SYNONYMS>
2C-B

$$$$
Compound 82
Actelion Java MolfileCreator 2.0

  0  0  0  0  0  0              0 V3000
M  V30 BEGIN CTAB
M  V30 COUNTS 25 29 0 0 0
M  V30 BEGIN ATOM
M  V30 1 O 0.0 0.0 0.0 0
M  V30 2 C -1.3455 0.7822 0.0 0
M  V30 3 O -1.3924 2.3312 0.0 0
M  V30 4 C -2.691 0.0938 0.0 0
M  V30 5 C -0.1408 3.1135 0.0 0 CFG=2
M  V30 6 C -0.1877 4.5842 0.0 0 CFG=2
M  V30 7 C 1.0482 2.4563 0.0 0
M  V30 8 O -1.1734 6.1331 0.0 0
M  V30 9 C 1.0013 5.3352 0.0 0 CFG=2
M  V30 10 C 2.2373 3.2073 0.0 0
M  V30 11 C -0.2816 7.5256 0.0 0
M  V30 12 C 0.9543 6.8059 0.0 0
M  V30 13 C 2.1904 4.678 0.0 0 CFG=1
M  V30 14 C 1.7679 6.4304 0.0 0
M  V30 15 C -0.3285 8.9963 0.0 0
M  V30 16 C 2.1434 7.5569 0.0 0
M  V30 17 C 3.3794 5.429 0.0 0 CFG=1
M  V30 18 C 3.7393 6.4773 0.0 0
M  V30 19 O -1.674 9.7786 0.0 0
M  V30 20 C 0.8605 9.7473 0.0 0
M  V30 21 C 2.0965 9.0276 0.0 0
M  V30 22 C 3.3325 6.8997 0.0 0
M  V30 23 N 4.5685 4.7719 0.0 0
M  V30 24 C -1.721 11.3275 0.0 0
M  V30 25 C 5.5542 3.708 0.0 0
M  V30 END ATOM
M  V30 BEGIN BOND
M  V30 1 2 1 2
M  V30 2 1 2 3
M  V30 3 1 2 4
M  V30 4 1 5 3 CFG=3
M  V30 5 1 5 6
M  V30 6 1 5 7
M  V30 7 1 6 8 CFG=3
M  V30 8 1 6 9
M  V30 9 1 7 10
M  V30 10 1 8 11
M  V30 11 1 9 12
M  V30 12 1 9 13
M  V30 13 1 9 14 CFG=1
M  V30 14 1 11 15
M  V30 15 1 12 16
M  V30 16 1 13 17
M  V30 17 1 14 18
M  V30 18 1 15 19
M  V30 19 2 15 20
M  V30 20 2 16 21
M  V30 21 1 16 22
M  V30 22 1 17 23 CFG=1
M  V30 23 1 19 24
M  V30 24 1 23 25
M  V30 25 1 13 10 CFG=3
M  V30 26 2 11 12
M  V30 27 1 17 22
M  V30 28 1 18 23
M  V30 29 1 20 21
M  V30 END BOND
M  V30 BEGIN COLLECTION
M  V30 MDLV30/STEABS ATOMS=(5 5 6 9 13 17)
M  V30 END COLLECTION
M  V30 END CTAB
M  END
>  <SMILES>
[H][C@@]12OC3=C(OC)C=CC4=C3[C@@]11CCN(C)[C@]([H])(C4)[C@]1([H])CC[C@@H]2OC(C)=O

>  <INCHI_IDENTIFIER>
InChI=1S/C20H25NO4/c1-11(22)24-16-7-5-13-14-10-12-4-6-15(23-3)18-17(12)20(13,19(16)25-18)8-9-21(14)2/h4,6,13-14,16,19H,5,7-10H2,1-3H3/t13-,14+,16-,19-,20-/m0/s1

>  <INCHI_KEY>
LGGDXXJAGWBUSL-BKRJIHRRSA-N

>  <FORMULA>
C20H25NO4

>  <MOLECULAR_WEIGHT>
343.4168

>  <DRUGBANK_ID>
DB01538

>  <DRUG_GROUPS>
experimental; illicit

>  <GENERIC_NAME>
Acetyldihydrocodeine

>  <SYNONYMS>


$$$$
Compound 83
Actelion Java MolfileCreator 2.0

  0  0  0  0  0  0              0 V3000
M  V30 BEGIN CTAB
M  V30 COUNTS 14 15 0 0 0
M  V30 BEGIN ATOM
M  V30 1 N 0.0 0.0 0.0 0
M  V30 2 C 0.7139 -1.2757 0.0 0
M  V30 3 C 1.4278 -2.5514 0.0 0
M  V30 4 N 2.1301 -1.2055 0.0 0
M  V30 5 C 2.7036 -3.2537 0.0 0
M  V30 6 C 0.0819 -3.2537 0.0 0
M  V30 7 C 1.3342 0.1404 0.0 0
M  V30 8 C 3.6048 -1.1703 0.0 0
M  V30 9 C 2.6685 -4.7283 0.0 0
M  V30 10 C 0.0468 -4.7283 0.0 0
M  V30 11 C 2.0364 1.4864 0.0 0
M  V30 12 C 4.3187 0.1755 0.0 0
M  V30 13 C 1.3225 -5.4657 0.0 0
M  V30 14 C 3.5111 1.5215 0.0 0
M  V30 END ATOM
M  V30 BEGIN BOND
M  V30 1 3 1 2
M  V30 2 1 2 3
M  V30 3 1 3 4
M  V30 4 1 3 5
M  V30 5 1 3 6
M  V30 6 1 4 7
M  V30 7 1 4 8
M  V30 8 1 5 9
M  V30 9 1 6 10
M  V30 10 1 7 11
M  V30 11 1 8 12
M  V30 12 1 9 13
M  V30 13 1 11 14
M  V30 14 1 10 13
M  V30 15 1 12 14
M  V30 END BOND
M  V30 END CTAB
M  END
>  <SMILES>
N#CC1(CCCCC1)N1CCCCC1

>  <INCHI_IDENTIFIER>
InChI=1S/C12H20N2/c13-11-12(7-3-1-4-8-12)14-9-5-2-6-10-14/h1-10H2

>  <INCHI_KEY>
WWSAYKJWUZJLRT-UHFFFAOYSA-N

>  <FORMULA>
C12H20N2

>  <MOLECULAR_WEIGHT>
192.3006

>  <DRUGBANK_ID>
DB01539

>  <DRUG_GROUPS>
experimental; illicit

>  <GENERIC_NAME>
1-Piperidinocyclohexanecarbonitrile

>  <SYNONYMS>


$$$$
Compound 84
Actelion Java MolfileCreator 2.0

  0  0  0  0  0  0              0 V3000
M  V30 BEGIN CTAB
M  V30 COUNTS 22 25 0 0 0
M  V30 BEGIN ATOM
M  V30 1 O 0.0 0.0 0.0 0
M  V30 2 C -1.3988 0.5944 0.0 0
M  V30 3 C -2.5878 -0.2681 0.0 0
M  V30 4 C -1.6436 2.0865 0.0 0
M  V30 5 O -2.4129 -1.6902 0.0 0
M  V30 6 C -3.9866 0.3263 0.0 0
M  V30 7 C -3.0424 2.681 0.0 0
M  V30 8 C -4.2314 1.8184 0.0 0 CFG=2
M  V30 9 C -5.1756 -0.5362 0.0 0
M  V30 10 C -5.6302 2.4129 0.0 0 CFG=2
M  V30 11 C -6.5744 0.0582 0.0 0
M  V30 12 C -6.8192 1.5503 0.0 0 CFG=1
M  V30 13 C -5.875 3.905 0.0 0
M  V30 14 C -8.218 2.1448 0.0 0 CFG=1
M  V30 15 C -7.2738 4.4995 0.0 0
M  V30 16 C -8.4628 3.6369 0.0 0 CFG=2
M  V30 17 C -9.5702 1.527 0.0 0
M  V30 18 C -9.9432 3.9399 0.0 0 CFG=2
M  V30 19 C -8.8591 5.094 0.0 0
M  V30 20 C -10.6193 2.6111 0.0 0
M  V30 21 O -9.5585 5.3854 0.0 0
M  V30 22 C -11.342 4.5344 0.0 0
M  V30 END ATOM
M  V30 BEGIN BOND
M  V30 1 2 1 2
M  V30 2 1 2 3
M  V30 3 1 2 4
M  V30 4 1 3 5
M  V30 5 2 3 6
M  V30 6 1 4 7
M  V30 7 1 6 8
M  V30 8 1 6 9
M  V30 9 1 8 10
M  V30 10 1 9 11
M  V30 11 1 10 12
M  V30 12 1 10 13 CFG=3
M  V30 13 1 12 14
M  V30 14 1 13 15
M  V30 15 1 14 16
M  V30 16 1 14 17 CFG=3
M  V30 17 1 16 18
M  V30 18 1 16 19 CFG=3
M  V30 19 1 17 20
M  V30 20 1 18 21 CFG=3
M  V30 21 1 18 22
M  V30 22 1 8 7 CFG=1
M  V30 23 1 12 11 CFG=1
M  V30 24 1 15 16
M  V30 25 1 18 20
M  V30 END BOND
M  V30 BEGIN COLLECTION
M  V30 MDLV30/STERAC1 ATOMS=(6 8 10 12 14 16 18)
M  V30 END COLLECTION
M  V30 END CTAB
M  END
>  <SMILES>
[H][C@@]12CC[C@](C)(O)[C@@]1(C)CC[C@]1([H])[C@@]3([H])CCC(=O)C(O)=C3CC[C@@]21[H]

>  <INCHI_IDENTIFIER>
InChI=1S/C19H28O3/c1-18-9-7-12-11-5-6-16(20)17(21)14(11)4-3-13(12)15(18)8-10-19(18,2)22/h11-13,15,21-22H,3-10H2,1-2H3/t11-,12-,13-,15+,18+,19+/m1/s1

>  <INCHI_KEY>
CLNUZOCYKSHICX-FAHHUNKHSA-N

>  <FORMULA>
C19H28O3

>  <MOLECULAR_WEIGHT>
304.43

>  <DRUGBANK_ID>
DB01540

>  <DRUG_GROUPS>
illicit

>  <GENERIC_NAME>
17alpha-methyl-4-hydroxynandrolone

>  <SYNONYMS>
17α-Methyl-4-hydroxynandrolone; 4-Hydroxy-19-normethyltestosterone

$$$$
Compound 85
Actelion Java MolfileCreator 2.0

  0  0  0  0  0  0              0 V3000
M  V30 BEGIN CTAB
M  V30 COUNTS 21 22 0 0 0
M  V30 BEGIN ATOM
M  V30 1 O 0.0 0.0 0.0 0
M  V30 2 C 1.3762 0.5457 0.0 0
M  V30 3 O 2.4915 -0.3915 0.0 0
M  V30 4 C 1.6016 2.0643 0.0 0
M  V30 5 C 3.2033 -1.661 0.0 0
M  V30 6 C 0.4152 3.0728 0.0 0
M  V30 7 C 3.9152 -0.3203 0.0 0
M  V30 8 C 1.8626 -2.3728 0.0 0
M  V30 9 C 4.4728 -2.3728 0.0 0
M  V30 10 C 3.1321 1.0203 0.0 0
M  V30 11 C 5.3863 -0.2847 0.0 0
M  V30 12 C 1.8271 -3.844 0.0 0
M  V30 13 C 0.344 -2.5982 0.0 0
M  V30 14 C 4.4372 -3.844 0.0 0
M  V30 15 C 3.844 2.3609 0.0 0
M  V30 16 C 6.0982 1.0559 0.0 0
M  V30 17 N 3.0965 -4.5558 0.0 0
M  V30 18 C -0.2016 -3.9745 0.0 0
M  V30 19 C 5.3152 2.3965 0.0 0
M  V30 20 C 3.0609 -6.027 0.0 0
M  V30 21 C -1.7203 -4.1999 0.0 0
M  V30 END ATOM
M  V30 BEGIN BOND
M  V30 1 2 1 2
M  V30 2 1 2 3
M  V30 3 1 2 4
M  V30 4 1 3 5
M  V30 5 1 4 6
M  V30 6 1 5 7
M  V30 7 1 5 8
M  V30 8 1 5 9
M  V30 9 2 7 10
M  V30 10 1 7 11
M  V30 11 1 8 12
M  V30 12 1 8 13
M  V30 13 1 9 14
M  V30 14 1 10 15
M  V30 15 2 11 16
M  V30 16 1 12 17
M  V30 17 1 13 18
M  V30 18 2 15 19
M  V30 19 1 17 20
M  V30 20 2 18 21
M  V30 21 1 14 17
M  V30 22 1 16 19
M  V30 END BOND
M  V30 END CTAB
M  END
>  <SMILES>
CCC(=O)OC1(CCN(C)CC1CC=C)C1=CC=CC=C1

>  <INCHI_IDENTIFIER>
InChI=1S/C18H25NO2/c1-4-9-16-14-19(3)13-12-18(16,21-17(20)5-2)15-10-7-6-8-11-15/h4,6-8,10-11,16H,1,5,9,12-14H2,2-3H3

>  <INCHI_KEY>
KGYFOSCXVAXULR-UHFFFAOYSA-N

>  <FORMULA>
C18H25NO2

>  <MOLECULAR_WEIGHT>
287.3966

>  <DRUGBANK_ID>
DB01542

>  <DRUG_GROUPS>
experimental; illicit

>  <GENERIC_NAME>
Allylprodine

>  <SYNONYMS>


$$$$
Compound 86
Actelion Java MolfileCreator 2.0

  0  0  0  0  0  0              0 V3000
M  V30 BEGIN CTAB
M  V30 COUNTS 21 24 0 0 0
M  V30 BEGIN ATOM
M  V30 1 O 0.0 0.0 0.0 0
M  V30 2 C 1.2632 0.7895 0.0 0
M  V30 3 C 2.5386 0.0607 0.0 0
M  V30 4 C 1.2268 2.3442 0.0 0
M  V30 5 C 3.814 0.8381 0.0 0
M  V30 6 C 2.5021 3.1338 0.0 0
M  V30 7 C 3.7775 2.3928 0.0 0 CFG=2
M  V30 8 C 5.0772 0.1093 0.0 0
M  V30 9 C 5.0408 3.1824 0.0 0 CFG=2
M  V30 10 C 6.3405 0.8988 0.0 0
M  V30 11 C 6.304 2.4414 0.0 0 CFG=1
M  V30 12 C 5.0043 4.6885 0.0 0
M  V30 13 C 7.543 3.2309 0.0 0 CFG=1
M  V30 14 C 6.2676 5.4781 0.0 0
M  V30 15 C 7.5065 4.7371 0.0 0 CFG=2
M  V30 16 C 8.952 2.7937 0.0 0
M  V30 17 C 8.9155 5.2473 0.0 0 CFG=2
M  V30 18 C 7.4701 6.2797 0.0 0
M  V30 19 C 9.8022 4.0326 0.0 0
M  V30 20 O 8.8791 6.7899 0.0 0
M  V30 21 C 6.2919 7.2636 0.0 0
M  V30 END ATOM
M  V30 BEGIN BOND
M  V30 1 2 1 2
M  V30 2 1 2 3
M  V30 3 1 2 4
M  V30 4 2 3 5
M  V30 5 1 4 6
M  V30 6 1 5 7
M  V30 7 1 5 8
M  V30 8 1 7 9
M  V30 9 1 8 10
M  V30 10 1 9 11
M  V30 11 1 9 12 CFG=1
M  V30 12 1 11 13
M  V30 13 1 12 14
M  V30 14 1 13 15
M  V30 15 1 13 16 CFG=1
M  V30 16 1 15 17
M  V30 17 1 15 18 CFG=1
M  V30 18 1 16 19
M  V30 19 1 17 20 CFG=1
M  V30 20 1 18 21
M  V30 21 1 7 6 CFG=3
M  V30 22 1 11 10 CFG=3
M  V30 23 1 14 15
M  V30 24 1 17 19
M  V30 END BOND
M  V30 BEGIN COLLECTION
M  V30 MDLV30/STERAC1 ATOMS=(6 7 9 11 13 15 17)
M  V30 END COLLECTION
M  V30 END CTAB
M  END
>  <SMILES>
[H][C@@]12CC[C@H](O)[C@@]1(CC)CC[C@]1([H])[C@@]3([H])CCC(=O)C=C3CC[C@@]21[H]

>  <INCHI_IDENTIFIER>
InChI=1S/C19H28O2/c1-2-19-10-9-15-14-6-4-13(20)11-12(14)3-5-16(15)17(19)7-8-18(19)21/h11,14-18,21H,2-10H2,1H3/t14-,15+,16+,17-,18-,19-/m0/s1

>  <INCHI_KEY>
FBYZQDCRLYHHHP-ZOFHRBRSSA-N

>  <FORMULA>
C19H28O2

>  <MOLECULAR_WEIGHT>
288.431

>  <DRUGBANK_ID>
DB01543

>  <DRUG_GROUPS>
experimental; illicit

>  <GENERIC_NAME>
18-methyl-19-nortestosterone

>  <SYNONYMS>
13beta-ethyl-17beta-hydroxygon-4-en-3-one

$$$$
Compound 87
Actelion Java MolfileCreator 2.0

  0  0  0  0  0  0              0 V3000
M  V30 BEGIN CTAB
M  V30 COUNTS 25 27 0 0 0
M  V30 BEGIN ATOM
M  V30 1 Cl 0.0 0.0 0.0 0
M  V30 2 C -0.1602 1.5161 0.0 0
M  V30 3 C 1.0723 2.4282 0.0 0
M  V30 4 C -1.5901 2.231 0.0 0
M  V30 5 C 0.8998 4.006 0.0 0
M  V30 6 C -1.738 3.8088 0.0 0
M  V30 7 C 2.194 4.6963 0.0 0
M  V30 8 C -0.4684 4.6963 0.0 0
M  V30 9 N 2.4899 6.1755 0.0 0
M  V30 10 C 3.3157 3.8211 0.0 0
M  V30 11 N -0.8381 6.1755 0.0 0
M  V30 12 C 1.5407 7.3711 0.0 0 CFG=2
M  V30 13 C 3.0569 2.3913 0.0 0
M  V30 14 C 4.6593 4.4128 0.0 0
M  V30 15 C 0.0369 7.3711 0.0 0
M  V30 16 C 2.1571 8.7394 0.0 0
M  V30 17 F 1.6394 1.8736 0.0 0
M  V30 18 C 4.1786 1.5161 0.0 0
M  V30 19 C 5.781 3.5376 0.0 0
M  V30 20 O -0.6532 8.7394 0.0 0
M  V30 21 O 1.2942 9.9966 0.0 0
M  V30 22 O 3.5993 8.8873 0.0 0
M  V30 23 C 5.5222 2.1078 0.0 0
M  V30 24 C 4.2156 10.2555 0.0 0
M  V30 25 C 5.6578 10.4034 0.0 0
M  V30 END ATOM
M  V30 BEGIN BOND
M  V30 1 1 1 2
M  V30 2 2 2 3
M  V30 3 1 2 4
M  V30 4 1 3 5
M  V30 5 2 4 6
M  V30 6 1 5 7
M  V30 7 2 5 8
M  V30 8 2 7 9
M  V30 9 1 7 10
M  V30 10 1 8 11
M  V30 11 1 9 12
M  V30 12 2 10 13
M  V30 13 1 10 14
M  V30 14 1 11 15
M  V30 15 1 12 16 CFG=3
M  V30 16 1 13 17
M  V30 17 1 13 18
M  V30 18 2 14 19
M  V30 19 2 15 20
M  V30 20 2 16 21
M  V30 21 1 16 22
M  V30 22 2 18 23
M  V30 23 1 22 24
M  V30 24 1 24 25
M  V30 25 1 6 8
M  V30 26 1 12 15
M  V30 27 1 19 23
M  V30 END BOND
M  V30 BEGIN COLLECTION
M  V30 MDLV30/STERAC1 ATOMS=(1 12)
M  V30 END COLLECTION
M  V30 END CTAB
M  END
>  <SMILES>
CCOC(=O)C1N=C(C2=CC=CC=C2F)C2=C(NC1=O)C=CC(Cl)=C2

>  <INCHI_IDENTIFIER>
InChI=1S/C18H14ClFN2O3/c1-2-25-18(24)16-17(23)21-14-8-7-10(19)9-12(14)15(22-16)11-5-3-4-6-13(11)20/h3-9,16H,2H2,1H3,(H,21,23)

>  <INCHI_KEY>
CUCHJCMWNFEYOM-UHFFFAOYSA-N

>  <FORMULA>
C18H14ClFN2O3

>  <MOLECULAR_WEIGHT>
360.767

>  <DRUGBANK_ID>
DB01545

>  <DRUG_GROUPS>
experimental; illicit

>  <GENERIC_NAME>
Ethyl loflazepate

>  <SYNONYMS>
Ethyl fluclozepate; Ethyl loflazepate; Ethylis loflazepas; Loflazepate d'ethyle; Loflazepato de etilo

$$$$
Compound 88
Actelion Java MolfileCreator 2.0

  0  0  0  0  0  0              0 V3000
M  V30 BEGIN CTAB
M  V30 COUNTS 24 27 0 0 0
M  V30 BEGIN ATOM
M  V30 1 O 0.0 0.0 0.0 0
M  V30 2 C -0.052 1.6 0.0 0
M  V30 3 C -1.3788 -0.7674 0.0 0
M  V30 4 C -1.4959 2.4455 0.0 0
M  V30 5 C 1.3008 2.4585 0.0 0
M  V30 6 O -2.8748 1.691 0.0 0
M  V30 7 C -1.5349 4.1106 0.0 0
M  V30 8 C 1.2618 4.0585 0.0 0
M  V30 9 C 2.6146 1.704 0.0 0 CFG=1
M  V30 10 C -4.2667 2.5236 0.0 0
M  V30 11 C -0.1691 4.9561 0.0 0
M  V30 12 C 2.5756 4.8911 0.0 0
M  V30 13 C 3.9285 2.5366 0.0 0 CFG=1
M  V30 14 C 2.5496 0.117 0.0 0
M  V30 15 C 2.2504 2.3284 0.0 0
M  V30 16 C 3.8894 4.1366 0.0 0 CFG=1
M  V30 17 O 5.2423 3.3691 0.0 0
M  V30 18 C 5.3073 1.7691 0.0 0
M  V30 19 C 3.9024 -0.6634 0.0 0 CFG=1
M  V30 20 C 2.0813 3.6033 0.0 0
M  V30 21 N 3.187 4.1626 0.0 0
M  V30 22 C 5.2813 0.1821 0.0 0
M  V30 23 O 3.8634 -2.1853 0.0 0
M  V30 24 C 3.4732 5.7236 0.0 0
M  V30 END ATOM
M  V30 BEGIN BOND
M  V30 1 1 1 2
M  V30 2 1 1 3
M  V30 3 2 2 4
M  V30 4 1 2 5
M  V30 5 1 4 6
M  V30 6 1 4 7
M  V30 7 2 5 8
M  V30 8 1 5 9
M  V30 9 1 6 10
M  V30 10 2 7 11
M  V30 11 1 8 12
M  V30 12 1 9 13
M  V30 13 1 9 14 CFG=3
M  V30 14 1 9 15
M  V30 15 1 12 16
M  V30 16 1 13 17 CFG=1
M  V30 17 1 13 18
M  V30 18 1 14 19
M  V30 19 1 15 20
M  V30 20 1 16 21 CFG=3
M  V30 21 1 18 22
M  V30 22 1 19 23 CFG=1
M  V30 23 1 21 24
M  V30 24 1 8 11
M  V30 25 1 13 16
M  V30 26 1 19 22
M  V30 27 1 20 21
M  V30 END BOND
M  V30 BEGIN COLLECTION
M  V30 MDLV30/STEABS ATOMS=(4 9 13 16 19)
M  V30 END COLLECTION
M  V30 END CTAB
M  END
>  <SMILES>
[H][C@]12CC3=C(C(OC)=C(OC)C=C3)[C@@]3(CCN1C)C[C@H](O)CC[C@@]23O

>  <INCHI_IDENTIFIER>
InChI=1S/C19H27NO4/c1-20-9-8-18-11-13(21)6-7-19(18,22)15(20)10-12-4-5-14(23-2)17(24-3)16(12)18/h4-5,13,15,21-22H,6-11H2,1-3H3/t13-,15+,18+,19-/m1/s1

>  <INCHI_KEY>
LCAHPIFLPICNRW-OPGCRTJHSA-N

>  <FORMULA>
C19H27NO4

>  <MOLECULAR_WEIGHT>
333.422

>  <DRUGBANK_ID>
DB01547

>  <DRUG_GROUPS>
experimental; illicit

>  <GENERIC_NAME>
Drotebanol

>  <SYNONYMS>


$$$$
Compound 89
Actelion Java MolfileCreator 2.0

  0  0  0  0  0  0              0 V3000
M  V30 BEGIN CTAB
M  V30 COUNTS 17 19 0 0 0
M  V30 BEGIN ATOM
M  V30 1 N 0.0 0.0 0.0 0
M  V30 2 C -1.4395 -0.4798 0.0 0
M  V30 3 C 1.1996 -0.7917 0.0 0
M  V30 4 C 0.3838 1.4755 0.0 0
M  V30 5 C -2.2192 0.8517 0.0 0
M  V30 6 C -0.1799 -1.1996 0.0 0
M  V30 7 C -2.7711 -1.1996 0.0 0
M  V30 8 C 2.3392 0.1559 0.0 0
M  V30 9 C 1.8474 1.5595 0.0 0
M  V30 10 C -3.7548 0.8877 0.0 0
M  V30 11 C -1.4995 2.1833 0.0 0
M  V30 12 C -0.2159 -2.6631 0.0 0
M  V30 13 C -2.8071 -2.6631 0.0 0
M  V30 14 C -4.5345 2.2192 0.0 0
M  V30 15 C -2.2792 3.5148 0.0 0
M  V30 16 C -1.5475 -3.3829 0.0 0
M  V30 17 C -3.8147 3.5508 0.0 0
M  V30 END ATOM
M  V30 BEGIN BOND
M  V30 1 1 1 2
M  V30 2 1 1 3
M  V30 3 1 1 4
M  V30 4 1 2 5
M  V30 5 1 2 6
M  V30 6 1 2 7
M  V30 7 1 3 8
M  V30 8 1 4 9
M  V30 9 2 5 10
M  V30 10 1 5 11
M  V30 11 1 6 12
M  V30 12 1 7 13
M  V30 13 1 10 14
M  V30 14 2 11 15
M  V30 15 1 12 16
M  V30 16 2 14 17
M  V30 17 1 8 9
M  V30 18 1 13 16
M  V30 19 1 15 17
M  V30 END BOND
M  V30 END CTAB
M  END
>  <SMILES>
C1CCN(C1)C1(CCCCC1)C1=CC=CC=C1

>  <INCHI_IDENTIFIER>
InChI=1S/C16H23N/c1-3-9-15(10-4-1)16(11-5-2-6-12-16)17-13-7-8-14-17/h1,3-4,9-10H,2,5-8,11-14H2

>  <INCHI_KEY>
FYOWWXMGDATDQY-UHFFFAOYSA-N

>  <FORMULA>
C16H23N

>  <MOLECULAR_WEIGHT>
229.3605

>  <DRUGBANK_ID>
DB01549

>  <DRUG_GROUPS>
experimental; illicit

>  <GENERIC_NAME>
Rolicyclidine

>  <SYNONYMS>
1-(1-phenylcyclohexyl)pyrrolidine; PCPy; Roliciclidina; Rolicyclidine; Rolicyclidinum

$$$$
Compound 90
Actelion Java MolfileCreator 2.0

  0  0  0  0  0  0              0 V3000
M  V30 BEGIN CTAB
M  V30 COUNTS 14 14 0 0 0
M  V30 BEGIN ATOM
M  V30 1 N 0.0 0.0 0.0 0
M  V30 2 C -1.3543 -0.7066 0.0 0
M  V30 3 C -2.7087 -1.4485 0.0 0
M  V30 4 C -2.744 -2.9324 0.0 0
M  V30 5 N -4.0984 -3.6391 0.0 0
M  V30 6 C -4.1337 -5.123 0.0 0 CFG=2
M  V30 7 C -5.4881 -5.8296 0.0 0
M  V30 8 C -2.85 -5.8296 0.0 0
M  V30 9 C -5.5234 -7.3135 0.0 0
M  V30 10 C -4.2397 -8.0201 0.0 0
M  V30 11 C -6.8777 -8.0201 0.0 0
M  V30 12 C -4.275 -9.504 0.0 0
M  V30 13 C -6.9131 -9.504 0.0 0
M  V30 14 C -5.6294 -10.2107 0.0 0
M  V30 END ATOM
M  V30 BEGIN BOND
M  V30 1 3 1 2
M  V30 2 1 2 3
M  V30 3 1 3 4
M  V30 4 1 4 5
M  V30 5 1 6 5 CFG=1
M  V30 6 1 6 7
M  V30 7 1 6 8
M  V30 8 1 7 9
M  V30 9 2 9 10
M  V30 10 1 9 11
M  V30 11 1 10 12
M  V30 12 2 11 13
M  V30 13 2 12 14
M  V30 14 1 13 14
M  V30 END BOND
M  V30 BEGIN COLLECTION
M  V30 MDLV30/STERAC1 ATOMS=(1 6)
M  V30 END COLLECTION
M  V30 END CTAB
M  END
>  <SMILES>
CC(CC1=CC=CC=C1)NCCC#N

>  <INCHI_IDENTIFIER>
InChI=1S/C12H16N2/c1-11(14-9-5-8-13)10-12-6-3-2-4-7-12/h2-4,6-7,11,14H,5,9-10H2,1H3

>  <INCHI_KEY>
IQUFSXIQAFPIMR-UHFFFAOYSA-N

>  <FORMULA>
C12H16N2

>  <MOLECULAR_WEIGHT>
188.2688

>  <DRUGBANK_ID>
DB01550

>  <DRUG_GROUPS>
experimental; illicit; withdrawn

>  <GENERIC_NAME>
Fenproporex

>  <SYNONYMS>
Femproporex; Fenproporex; Fenproporexum

$$$$
Compound 91
Actelion Java MolfileCreator 2.0

  0  0  0  0  0  0              0 V3000
M  V30 BEGIN CTAB
M  V30 COUNTS 20 21 0 0 0
M  V30 BEGIN ATOM
M  V30 1 O 0.0 0.0 0.0 0
M  V30 2 C 0.7593 1.3137 0.0 0
M  V30 3 O 2.2297 1.3017 0.0 0
M  V30 4 C 0.0 2.6757 0.0 0
M  V30 5 C 2.9168 0.012 0.0 0 CFG=2
M  V30 6 C -1.5427 2.7601 0.0 0
M  V30 7 C 3.6038 1.374 0.0 0
M  V30 8 C 4.1823 -0.7111 0.0 0 CFG=2
M  V30 9 C 1.5789 -0.7111 0.0 0
M  V30 10 C 2.7842 2.6878 0.0 0
M  V30 11 C 5.0742 1.4584 0.0 0
M  V30 12 C 4.1462 -2.1815 0.0 0
M  V30 13 C 5.4479 0.0723 0.0 0
M  V30 14 C 1.5427 -2.1815 0.0 0
M  V30 15 C 3.4712 4.0497 0.0 0
M  V30 16 C 5.7613 2.8203 0.0 0
M  V30 17 N 2.8083 -2.9168 0.0 0
M  V30 18 C 6.7134 -0.6508 0.0 0
M  V30 19 C 4.9417 4.1341 0.0 0
M  V30 20 C 2.7721 -4.3872 0.0 0
M  V30 END ATOM
M  V30 BEGIN BOND
M  V30 1 2 1 2
M  V30 2 1 2 3
M  V30 3 1 2 4
M  V30 4 1 5 3 CFG=3
M  V30 5 1 4 6
M  V30 6 1 5 7
M  V30 7 1 5 8
M  V30 8 1 5 9
M  V30 9 2 7 10
M  V30 10 1 7 11
M  V30 11 1 8 12
M  V30 12 1 8 13 CFG=1
M  V30 13 1 9 14
M  V30 14 1 10 15
M  V30 15 2 11 16
M  V30 16 1 12 17
M  V30 17 1 13 18
M  V30 18 2 15 19
M  V30 19 1 17 20
M  V30 20 1 14 17
M  V30 21 1 16 19
M  V30 END BOND
M  V30 BEGIN COLLECTION
M  V30 MDLV30/STERAC1 ATOMS=(2 5 8)
M  V30 END COLLECTION
M  V30 END CTAB
M  END
>  <SMILES>
CC[C@@H]1CN(C)CC[C@]1(OC(=O)CC)C1=CC=CC=C1

>  <INCHI_IDENTIFIER>
InChI=1S/C17H25NO2/c1-4-14-13-18(3)12-11-17(14,20-16(19)5-2)15-9-7-6-8-10-15/h6-10,14H,4-5,11-13H2,1-3H3/t14-,17-/m1/s1

>  <INCHI_KEY>
ODEGQXRCQDVXSJ-RHSMWYFYSA-N

>  <FORMULA>
C17H25NO2

>  <MOLECULAR_WEIGHT>
275.392

>  <DRUGBANK_ID>
DB01552

>  <DRUG_GROUPS>
experimental; illicit

>  <GENERIC_NAME>
Betameprodine

>  <SYNONYMS>
beta-1-Methyl-3-ethyl-4-phenyl-4-propionoxy-piperidin; beta-3-Ethyl-1-methyl-4-phenyl-4-propionoxypiperidine; beta-meprodine; Betameprodina; Betameprodinum

$$$$
Compound 92
Actelion Java MolfileCreator 2.0

  0  0  0  0  0  0              0 V3000
M  V30 BEGIN CTAB
M  V30 COUNTS 20 23 0 0 0
M  V30 BEGIN ATOM
M  V30 1 O 0.0 0.0 0.0 0
M  V30 2 C 1.4563 0.2936 0.0 0 CFG=2
M  V30 3 C 2.4076 -0.8338 0.0 0
M  V30 4 C 1.9261 1.7499 0.0 0
M  V30 5 C 3.8639 -0.5402 0.0 0
M  V30 6 C 3.3824 2.0435 0.0 0
M  V30 7 C 4.3337 0.916 0.0 0 CFG=2
M  V30 8 C 4.8152 -1.6677 0.0 0
M  V30 9 C 5.79 1.2096 0.0 0 CFG=2
M  V30 10 C 6.2715 -1.3741 0.0 0
M  V30 11 C 6.7413 0.0822 0.0 0 CFG=1
M  V30 12 C 6.2598 2.6777 0.0 0
M  V30 13 C 8.1977 0.3758 0.0 0 CFG=1
M  V30 14 C 7.7161 2.9713 0.0 0
M  V30 15 C 8.6674 1.8438 0.0 0 CFG=2
M  V30 16 C 9.3604 -0.5285 0.0 0
M  V30 17 C 10.1473 1.8321 0.0 0 CFG=2
M  V30 18 C 9.2782 3.2414 0.0 0
M  V30 19 C 10.5818 0.364 0.0 0
M  V30 20 O 11.0516 3.0653 0.0 0
M  V30 END ATOM
M  V30 BEGIN BOND
M  V30 1 1 2 1 CFG=1
M  V30 2 1 2 3
M  V30 3 1 2 4
M  V30 4 2 3 5
M  V30 5 1 4 6
M  V30 6 1 5 7
M  V30 7 1 5 8
M  V30 8 1 7 9
M  V30 9 1 8 10
M  V30 10 1 9 11
M  V30 11 1 9 12 CFG=1
M  V30 12 1 11 13
M  V30 13 1 12 14
M  V30 14 1 13 15
M  V30 15 1 13 16 CFG=1
M  V30 16 1 15 17
M  V30 17 1 15 18 CFG=1
M  V30 18 1 16 19
M  V30 19 1 17 20 CFG=1
M  V30 20 1 7 6 CFG=3
M  V30 21 1 11 10 CFG=3
M  V30 22 1 14 15
M  V30 23 1 17 19
M  V30 END BOND
M  V30 BEGIN COLLECTION
M  V30 MDLV30/STEABS ATOMS=(7 2 7 9 11 13 15 17)
M  V30 END COLLECTION
M  V30 END CTAB
M  END
>  <SMILES>
C[C@]12CC[C@H]3[C@@H](CCC4=C[C@@H](O)CC[C@H]34)[C@@H]1CC[C@@H]2O

>  <INCHI_IDENTIFIER>
InChI=1S/C18H28O2/c1-18-9-8-14-13-5-3-12(19)10-11(13)2-4-15(14)16(18)6-7-17(18)20/h10,12-17,19-20H,2-9H2,1H3/t12-,13-,14+,15+,16-,17-,18-/m0/s1

>  <INCHI_KEY>
CMXKUJNZWYTFJN-XFUVECHXSA-N

>  <FORMULA>
C18H28O2

>  <MOLECULAR_WEIGHT>
276.42

>  <DRUGBANK_ID>
DB01554

>  <DRUG_GROUPS>
experimental; illicit

>  <GENERIC_NAME>
Bolandiol

>  <SYNONYMS>
19-nor-4-androstenediol; 3beta,17beta-dihydroxyestr-4-ene; 4-norendiol

$$$$
Compound 93
Actelion Java MolfileCreator 2.0

  0  0  0  0  0  0              0 V3000
M  V30 BEGIN CTAB
M  V30 COUNTS 26 27 0 0 0
M  V30 BEGIN ATOM
M  V30 1 O 0.0 0.0 0.0 0
M  V30 2 C -0.7781 -1.2569 0.0 0
M  V30 3 O -2.3104 -1.221 0.0 0
M  V30 4 C -0.0598 -2.5139 0.0 0
M  V30 5 C -3.0765 0.1077 0.0 0 CFG=1
M  V30 6 C -4.6089 0.1436 0.0 0
M  V30 7 C -2.3583 1.4365 0.0 0
M  V30 8 C -4.6448 1.6759 0.0 0
M  V30 9 C -4.6448 -1.3168 0.0 0
M  V30 10 C -6.1412 0.1795 0.0 0
M  V30 11 C -0.8978 1.4724 0.0 0
M  V30 12 C -5.9736 2.4421 0.0 0
M  V30 13 C -3.3878 2.4421 0.0 0
M  V30 14 C -3.3878 -2.0351 0.0 0
M  V30 15 C -5.9736 -2.0351 0.0 0
M  V30 16 C -7.5777 0.7302 0.0 0 CFG=2
M  V30 17 C -6.0095 3.9744 0.0 0
M  V30 18 C -3.4237 3.9744 0.0 0
M  V30 19 C -3.4237 -3.4955 0.0 0
M  V30 20 C -6.0095 -3.4955 0.0 0
M  V30 21 N -8.7509 -0.1915 0.0 0
M  V30 22 C -7.877 2.2386 0.0 0
M  V30 23 C -4.7525 4.7405 0.0 0
M  V30 24 C -4.7525 -4.2138 0.0 0
M  V30 25 C -10.1874 0.3591 0.0 0
M  V30 26 C -8.5234 -1.628 0.0 0
M  V30 END ATOM
M  V30 BEGIN BOND
M  V30 1 2 1 2
M  V30 2 1 2 3
M  V30 3 1 2 4
M  V30 4 1 5 3 CFG=1
M  V30 5 1 5 6
M  V30 6 1 5 7
M  V30 7 1 6 8
M  V30 8 1 6 9
M  V30 9 1 6 10
M  V30 10 1 7 11
M  V30 11 2 8 12
M  V30 12 1 8 13
M  V30 13 2 9 14
M  V30 14 1 9 15
M  V30 15 1 10 16
M  V30 16 1 12 17
M  V30 17 2 13 18
M  V30 18 1 14 19
M  V30 19 2 15 20
M  V30 20 1 16 21 CFG=3
M  V30 21 1 16 22
M  V30 22 2 17 23
M  V30 23 2 19 24
M  V30 24 1 21 25
M  V30 25 1 21 26
M  V30 26 1 18 23
M  V30 27 1 20 24
M  V30 END BOND
M  V30 BEGIN COLLECTION
M  V30 MDLV30/STEABS ATOMS=(2 5 16)
M  V30 END COLLECTION
M  V30 END CTAB
M  END
>  <SMILES>
CC[C@@H](OC(C)=O)C(C[C@@H](C)N(C)C)(C1=CC=CC=C1)C1=CC=CC=C1

>  <INCHI_IDENTIFIER>
InChI=1S/C23H31NO2/c1-6-22(26-19(3)25)23(17-18(2)24(4)5,20-13-9-7-10-14-20)21-15-11-8-12-16-21/h7-16,18,22H,6,17H2,1-5H3/t18-,22-/m1/s1

>  <INCHI_KEY>
XBMIVRRWGCYBTQ-XMSQKQJNSA-N

>  <FORMULA>
C23H31NO2

>  <MOLECULAR_WEIGHT>
353.4977

>  <DRUGBANK_ID>
DB01555

>  <DRUG_GROUPS>
experimental; illicit

>  <GENERIC_NAME>
Alphacetylmethadol

>  <SYNONYMS>


$$$$
Compound 94
Actelion Java MolfileCreator 2.0

  0  0  0  0  0  0              0 V3000
M  V30 BEGIN CTAB
M  V30 COUNTS 12 12 0 0 0
M  V30 BEGIN ATOM
M  V30 1 Cl 0.0 0.0 0.0 0
M  V30 2 C -0.0357 1.5234 0.0 0
M  V30 3 C 1.2139 2.2851 0.0 0
M  V30 4 C -1.3567 2.2851 0.0 0
M  V30 5 C 1.1782 3.8085 0.0 0
M  V30 6 C -1.3924 3.8085 0.0 0
M  V30 7 C -0.1428 4.5821 0.0 0
M  V30 8 C -0.1785 6.1055 0.0 0
M  V30 9 C 1.0711 6.8791 0.0 0
M  V30 10 N 2.3208 7.6527 0.0 0
M  V30 11 C 0.2975 8.2001 0.0 0
M  V30 12 C 1.7971 5.6294 0.0 0
M  V30 END ATOM
M  V30 BEGIN BOND
M  V30 1 1 1 2
M  V30 2 2 2 3
M  V30 3 1 2 4
M  V30 4 1 3 5
M  V30 5 2 4 6
M  V30 6 2 5 7
M  V30 7 1 7 8
M  V30 8 1 8 9
M  V30 9 1 9 10
M  V30 10 1 9 11
M  V30 11 1 9 12
M  V30 12 1 6 7
M  V30 END BOND
M  V30 END CTAB
M  END
>  <SMILES>
CC(C)(N)CC1=CC=C(Cl)C=C1

>  <INCHI_IDENTIFIER>
InChI=1S/C10H14ClN/c1-10(2,12)7-8-3-5-9(11)6-4-8/h3-6H,7,12H2,1-2H3

>  <INCHI_KEY>
ZCKAMNXUHHNZLN-UHFFFAOYSA-N

>  <FORMULA>
C10H14ClN

>  <MOLECULAR_WEIGHT>
183.678

>  <DRUGBANK_ID>
DB01556

>  <DRUG_GROUPS>
illicit; withdrawn

>  <GENERIC_NAME>
Chlorphentermine

>  <SYNONYMS>
4-Chloro-a,a-dimethylbenzeneethanamine; 4-Chloro-a,a-dimethylphenethylamine; a,a-Dimethyl-p-chlorophenethylamine; Chlorphenterminum; Clorfentermina

$$$$
Compound 95
Actelion Java MolfileCreator 2.0

  0  0  0  0  0  0              0 V3000
M  V30 BEGIN CTAB
M  V30 COUNTS 26 28 0 0 0
M  V30 BEGIN ATOM
M  V30 1 O 0.0 0.0 0.0 0
M  V30 2 C 1.2735 0.7762 0.0 0
M  V30 3 N 2.5471 0.0485 0.0 0
M  V30 4 C 1.2371 2.3288 0.0 0
M  V30 5 C 3.8207 0.8247 0.0 0
M  V30 6 C 2.5107 -1.4312 0.0 0
M  V30 7 C -0.1091 3.1172 0.0 0
M  V30 8 C 3.7843 2.3773 0.0 0
M  V30 9 C 5.0943 0.097 0.0 0
M  V30 10 C 1.1644 -2.1711 0.0 0
M  V30 11 C 3.7843 -2.1711 0.0 0
M  V30 12 C 5.0579 3.1657 0.0 0
M  V30 13 C 6.3679 0.8733 0.0 0
M  V30 14 C 1.128 -3.6509 0.0 0
M  V30 15 C 3.7479 -3.6509 0.0 0
M  V30 16 C 6.3315 2.438 0.0 0
M  V30 17 N 2.4016 -4.3908 0.0 0
M  V30 18 C 2.3652 -5.8706 0.0 0 CFG=2
M  V30 19 C 1.0188 -6.6105 0.0 0
M  V30 20 C 3.6388 -6.6105 0.0 0
M  V30 21 C 0.9824 -8.0903 0.0 0
M  V30 22 C 2.256 -8.818 0.0 0
M  V30 23 C -0.3638 -8.818 0.0 0
M  V30 24 C 2.2196 -10.2978 0.0 0
M  V30 25 C -0.4002 -10.2978 0.0 0
M  V30 26 C 0.8733 -11.0377 0.0 0
M  V30 END ATOM
M  V30 BEGIN BOND
M  V30 1 2 1 2
M  V30 2 1 2 3
M  V30 3 1 2 4
M  V30 4 1 3 5
M  V30 5 1 3 6
M  V30 6 1 4 7
M  V30 7 2 5 8
M  V30 8 1 5 9
M  V30 9 1 6 10
M  V30 10 1 6 11
M  V30 11 1 8 12
M  V30 12 2 9 13
M  V30 13 1 10 14
M  V30 14 1 11 15
M  V30 15 2 12 16
M  V30 16 1 14 17
M  V30 17 1 18 17 CFG=1
M  V30 18 1 18 19
M  V30 19 1 18 20
M  V30 20 1 19 21
M  V30 21 2 21 22
M  V30 22 1 21 23
M  V30 23 1 22 24
M  V30 24 2 23 25
M  V30 25 2 24 26
M  V30 26 1 13 16
M  V30 27 1 15 17
M  V30 28 1 25 26
M  V30 END BOND
M  V30 BEGIN COLLECTION
M  V30 MDLV30/STERAC1 ATOMS=(1 18)
M  V30 END COLLECTION
M  V30 END CTAB
M  END
>  <SMILES>
CCC(=O)N(C1CCN(CC1)C(C)CC1=CC=CC=C1)C1=CC=CC=C1

>  <INCHI_IDENTIFIER>
InChI=1S/C23H30N2O/c1-3-23(26)25(21-12-8-5-9-13-21)22-14-16-24(17-15-22)19(2)18-20-10-6-4-7-11-20/h4-13,19,22H,3,14-18H2,1-2H3

>  <INCHI_KEY>
NGTVDHYUFBKWID-UHFFFAOYSA-N

>  <FORMULA>
C23H30N2O

>  <MOLECULAR_WEIGHT>
350.4971

>  <DRUGBANK_ID>
DB01557

>  <DRUG_GROUPS>
illicit

>  <GENERIC_NAME>
α-Methylfentanyl

>  <SYNONYMS>
alpha-methylfentanyl

$$$$
Compound 96
Actelion Java MolfileCreator 2.0

  0  0  0  0  0  0              0 V3000
M  V30 BEGIN CTAB
M  V30 COUNTS 11 11 0 0 0
M  V30 BEGIN ATOM
M  V30 1 O 0.0 0.0 0.0 0
M  V30 2 C 1.2793 -0.731 0.0 0
M  V30 3 C 1.2428 -2.2175 0.0 0
M  V30 4 C 2.5587 0.0487 0.0 0 CFG=1
M  V30 5 C 2.5221 -2.9486 0.0 0
M  V30 6 C -0.1096 -2.9486 0.0 0
M  V30 7 N 2.5221 1.6083 0.0 0
M  V30 8 C 3.8381 -0.6823 0.0 0
M  V30 9 C 2.4856 -4.4351 0.0 0
M  V30 10 C -0.1462 -4.4351 0.0 0
M  V30 11 C 1.1331 -5.1783 0.0 0
M  V30 END ATOM
M  V30 BEGIN BOND
M  V30 1 2 1 2
M  V30 2 1 2 3
M  V30 3 1 2 4
M  V30 4 2 3 5
M  V30 5 1 3 6
M  V30 6 1 4 7 CFG=1
M  V30 7 1 4 8
M  V30 8 1 5 9
M  V30 9 2 6 10
M  V30 10 2 9 11
M  V30 11 1 10 11
M  V30 END BOND
M  V30 BEGIN COLLECTION
M  V30 MDLV30/STEABS ATOMS=(1 4)
M  V30 END COLLECTION
M  V30 END CTAB
M  END
>  <SMILES>
C[C@H](N)C(=O)C1=CC=CC=C1

>  <INCHI_IDENTIFIER>
InChI=1S/C9H11NO/c1-7(10)9(11)8-5-3-2-4-6-8/h2-7H,10H2,1H3/t7-/m0/s1

>  <INCHI_KEY>
PUAQLLVFLMYYJJ-ZETCQYMHSA-N

>  <FORMULA>
C9H11NO

>  <MOLECULAR_WEIGHT>
149.1897

>  <DRUGBANK_ID>
DB01560

>  <DRUG_GROUPS>
illicit

>  <GENERIC_NAME>
Cathinone

>  <SYNONYMS>
alpha-Aminopropiophenone; Cathinone; Cathinonum; Catinona; D-Cathinone; Norephedrone

$$$$
Compound 97
Actelion Java MolfileCreator 2.0

  0  0  0  0  0  0              0 V3000
M  V30 BEGIN CTAB
M  V30 COUNTS 21 24 0 0 0
M  V30 BEGIN ATOM
M  V30 1 O 0.0 0.0 0.0 0
M  V30 2 C 1.2352 0.7767 0.0 0
M  V30 3 C 2.5723 0.0127 0.0 0
M  V30 4 C 1.2097 2.4067 0.0 0
M  V30 5 C 3.9094 0.8404 0.0 0 CFG=1
M  V30 6 C 2.5595 3.2217 0.0 0
M  V30 7 C 3.8839 2.4067 0.0 0 CFG=2
M  V30 8 C 5.1956 0.1018 0.0 0
M  V30 9 C 5.1828 3.1963 0.0 0 CFG=2
M  V30 10 C 3.8584 3.9094 0.0 0
M  V30 11 C 6.469 0.9168 0.0 0
M  V30 12 C 6.4053 2.4831 0.0 0 CFG=1
M  V30 13 C 5.1446 4.6989 0.0 0
M  V30 14 C 7.6278 3.2727 0.0 0 CFG=1
M  V30 15 C 6.3671 5.4884 0.0 0
M  V30 16 C 7.5896 4.7753 0.0 0 CFG=2
M  V30 17 C 8.9776 2.8524 0.0 0
M  V30 18 C 8.9394 5.272 0.0 0
M  V30 19 C 7.5514 6.278 0.0 0
M  V30 20 C 9.7799 4.0622 0.0 0
M  V30 21 O 9.3597 6.6982 0.0 0
M  V30 END ATOM
M  V30 BEGIN BOND
M  V30 1 2 1 2
M  V30 2 1 2 3
M  V30 3 1 2 4
M  V30 4 1 5 3 CFG=1
M  V30 5 1 4 6
M  V30 6 1 5 7
M  V30 7 1 5 8
M  V30 8 1 7 9
M  V30 9 1 7 10 CFG=1
M  V30 10 1 8 11
M  V30 11 1 9 12
M  V30 12 1 9 13 CFG=1
M  V30 13 1 12 14
M  V30 14 1 13 15
M  V30 15 1 14 16
M  V30 16 1 14 17 CFG=1
M  V30 17 1 16 18
M  V30 18 1 16 19 CFG=1
M  V30 19 1 17 20
M  V30 20 2 18 21
M  V30 21 1 6 7
M  V30 22 1 12 11 CFG=3
M  V30 23 1 15 16
M  V30 24 1 18 20
M  V30 END BOND
M  V30 BEGIN COLLECTION
M  V30 MDLV30/STEABS ATOMS=(6 5 7 9 12 14 16)
M  V30 END COLLECTION
M  V30 END CTAB
M  END
>  <SMILES>
[H][C@@]12CCC(=O)[C@@]1(C)CC[C@@]1([H])[C@@]2([H])CC[C@@]2([H])CC(=O)CC[C@]12C

>  <INCHI_IDENTIFIER>
InChI=1S/C19H28O2/c1-18-9-7-13(20)11-12(18)3-4-14-15-5-6-17(21)19(15,2)10-8-16(14)18/h12,14-16H,3-11H2,1-2H3/t12-,14-,15-,16-,18-,19-/m0/s1

>  <INCHI_KEY>
RAJWOBJTTGJROA-WZNAKSSCSA-N

>  <FORMULA>
C19H28O2

>  <MOLECULAR_WEIGHT>
288.4244

>  <DRUGBANK_ID>
DB01561

>  <DRUG_GROUPS>
experimental; illicit

>  <GENERIC_NAME>
Androstanedione

>  <SYNONYMS>
5alpha-Androstan-3,17-dione; 5α-androstane-3,17-dione

$$$$
Compound 98
Actelion Java MolfileCreator 2.0

  0  0  0  0  0  0              0 V3000
M  V30 BEGIN CTAB
M  V30 COUNTS 24 26 0 0 0
M  V30 BEGIN ATOM
M  V30 1 O 0.0 0.0 0.0 0
M  V30 2 C 0.7037 1.3488 0.0 0
M  V30 3 O 2.1815 1.384 0.0 0
M  V30 4 C -0.0938 2.6976 0.0 0
M  V30 5 C 2.8853 0.1055 0.0 0
M  V30 6 C 3.589 1.4543 0.0 0
M  V30 7 C 1.5364 -0.5981 0.0 0
M  V30 8 C 4.1637 -0.5981 0.0 0
M  V30 9 C 2.7914 2.8032 0.0 0
M  V30 10 C 5.0669 1.4895 0.0 0
M  V30 11 C 1.5013 -2.076 0.0 0
M  V30 12 C 4.1285 -2.076 0.0 0
M  V30 13 C 3.4952 4.152 0.0 0
M  V30 14 C 5.7706 2.8384 0.0 0
M  V30 15 N 2.7797 -2.7797 0.0 0
M  V30 16 C 4.973 4.1872 0.0 0
M  V30 17 C 2.7445 -4.2576 0.0 0
M  V30 18 C 1.3957 -4.973 0.0 0
M  V30 19 C 1.3605 -6.4509 0.0 0
M  V30 20 C 2.639 -7.1546 0.0 0
M  V30 21 C 0.0117 -7.1546 0.0 0
M  V30 22 C 2.6038 -8.6325 0.0 0
M  V30 23 C -0.0234 -8.6325 0.0 0
M  V30 24 C 1.2549 -9.3362 0.0 0
M  V30 END ATOM
M  V30 BEGIN BOND
M  V30 1 2 1 2
M  V30 2 1 2 3
M  V30 3 1 2 4
M  V30 4 1 3 5
M  V30 5 1 5 6
M  V30 6 1 5 7
M  V30 7 1 5 8
M  V30 8 2 6 9
M  V30 9 1 6 10
M  V30 10 1 7 11
M  V30 11 1 8 12
M  V30 12 1 9 13
M  V30 13 2 10 14
M  V30 14 1 11 15
M  V30 15 2 13 16
M  V30 16 1 15 17
M  V30 17 1 17 18
M  V30 18 1 18 19
M  V30 19 2 19 20
M  V30 20 1 19 21
M  V30 21 1 20 22
M  V30 22 2 21 23
M  V30 23 2 22 24
M  V30 24 1 12 15
M  V30 25 1 14 16
M  V30 26 1 23 24
M  V30 END BOND
M  V30 END CTAB
M  END
>  <SMILES>
CC(=O)OC1(CCN(CCC2=CC=CC=C2)CC1)C1=CC=CC=C1

>  <INCHI_IDENTIFIER>
InChI=1S/C21H25NO2/c1-18(23)24-21(20-10-6-3-7-11-20)13-16-22(17-14-21)15-12-19-8-4-2-5-9-19/h2-11H,12-17H2,1H3

>  <INCHI_KEY>
BVURVTVDNWSNFN-UHFFFAOYSA-N

>  <FORMULA>
C21H25NO2

>  <MOLECULAR_WEIGHT>
323.4287

>  <DRUGBANK_ID>
DB01562

>  <DRUG_GROUPS>
experimental; illicit

>  <GENERIC_NAME>
1-(2-Phenylethyl)-4-phenyl-4-acetoxypiperidine

>  <SYNONYMS>
1-(2-Phenethyl)-4-phenyl-4-acetoxypiperidine; 1-Phenethyl-4-phenyl-4-piperidinol acetate (ester); PEPAP

$$$$
Compound 99
Actelion Java MolfileCreator 2.0

  0  0  0  0  0  0              0 V3000
M  V30 BEGIN CTAB
M  V30 COUNTS 23 26 0 0 0
M  V30 BEGIN ATOM
M  V30 1 O 0.0 0.0 0.0 0
M  V30 2 C 1.2387 0.779 0.0 0
M  V30 3 C 2.5796 0.0127 0.0 0
M  V30 4 C 1.2132 2.4136 0.0 0
M  V30 5 C 3.9205 0.8428 0.0 0
M  V30 6 C 2.5669 3.2309 0.0 0
M  V30 7 C 3.895 2.4136 0.0 0 CFG=2
M  V30 8 C 5.2104 0.1021 0.0 0
M  V30 9 C 5.1976 3.2054 0.0 0 CFG=2
M  V30 10 C 3.8695 3.9205 0.0 0
M  V30 11 C 6.4874 0.9194 0.0 0 CFG=1
M  V30 12 C 6.4236 2.4902 0.0 0 CFG=1
M  V30 13 C 5.1593 4.7123 0.0 0
M  V30 14 C 7.7262 0.2298 0.0 0
M  V30 15 C 7.6496 3.282 0.0 0 CFG=1
M  V30 16 C 6.3853 5.5041 0.0 0
M  V30 17 C 7.6113 4.7889 0.0 0 CFG=2
M  V30 18 C 9.0033 2.8606 0.0 0
M  V30 19 C 8.9649 5.287 0.0 0 CFG=2
M  V30 20 C 7.5729 6.2959 0.0 0
M  V30 21 C 9.8078 4.0738 0.0 0
M  V30 22 O 10.1143 6.1809 0.0 0
M  V30 23 C 8.4669 6.7173 0.0 0
M  V30 END ATOM
M  V30 BEGIN BOND
M  V30 1 2 1 2
M  V30 2 1 2 3
M  V30 3 1 2 4
M  V30 4 2 3 5
M  V30 5 1 4 6
M  V30 6 1 5 7
M  V30 7 1 5 8
M  V30 8 1 7 9
M  V30 9 1 7 10 CFG=1
M  V30 10 1 8 11
M  V30 11 1 12 9 CFG=3
M  V30 12 1 9 13 CFG=1
M  V30 13 1 11 14 CFG=1
M  V30 14 1 12 15
M  V30 15 1 13 16
M  V30 16 1 15 17
M  V30 17 1 15 18 CFG=1
M  V30 18 1 17 19
M  V30 19 1 17 20 CFG=1
M  V30 20 1 18 21
M  V30 21 1 19 22 CFG=1
M  V30 22 1 19 23
M  V30 23 1 6 7
M  V30 24 1 11 12
M  V30 25 1 16 17
M  V30 26 1 19 21
M  V30 END BOND
M  V30 BEGIN COLLECTION
M  V30 MDLV30/STEABS ATOMS=(7 7 9 11 12 15 17 19)
M  V30 END COLLECTION
M  V30 END CTAB
M  END
>  <SMILES>
[H][C@@]12CC[C@](C)(O)[C@@]1(C)CC[C@@]1([H])[C@@]2([H])[C@@H](C)CC2=CC(=O)CC[C@]12C

>  <INCHI_IDENTIFIER>
InChI=1S/C21H32O2/c1-13-11-14-12-15(22)5-8-19(14,2)16-6-9-20(3)17(18(13)16)7-10-21(20,4)23/h12-13,16-18,23H,5-11H2,1-4H3/t13-,16-,17-,18+,19-,20-,21-/m0/s1

>  <INCHI_KEY>
IVFYLRMMHVYGJH-PVPPCFLZSA-N

>  <FORMULA>
C21H32O2

>  <MOLECULAR_WEIGHT>
316.4776

>  <DRUGBANK_ID>
DB01564

>  <DRUG_GROUPS>
experimental; illicit

>  <GENERIC_NAME>
Calusterone

>  <SYNONYMS>
17-beta-Hydroxy-7-beta,17-alpha-dimethylandrost-4-ene-3-one; 17beta-Hydroxy-7beta,17-dimethylandrost-4-en-3-one; 17beta-Hydroxy-7beta,17alpha-dimethylandrost-4-ene-3-one; 7-beta,17-alpha-Dimethyl testosterone; 7-beta,17-Dimethyltestosterone; 7beta,17-Dimethyltestosterone; 7beta,17alpha-Dimethyltestosterone; Calusterona; Calusterone; Calusteronum; CLS

$$$$
Compound 100
Actelion Java MolfileCreator 2.0

  0  0  0  0  0  0              0 V3000
M  V30 BEGIN CTAB
M  V30 COUNTS 21 25 0 0 0
M  V30 BEGIN ATOM
M  V30 1 O 0.0 0.0 0.0 0
M  V30 2 C 0.9082 1.418 0.0 0
M  V30 3 C 0.9082 -1.4818 0.0 0 CFG=2
M  V30 4 C 0.8604 2.9158 0.0 0
M  V30 5 C 2.1191 0.7488 0.0 0
M  V30 6 C 2.1191 -0.717 0.0 0 CFG=2
M  V30 7 C 0.8604 -2.8839 0.0 0 CFG=1
M  V30 8 O -0.5098 3.7125 0.0 0
M  V30 9 C 2.0713 3.6806 0.0 0
M  V30 10 C 3.3301 1.5136 0.0 0
M  V30 11 C 3.3301 -1.3862 0.0 0 CFG=2
M  V30 12 C 2.8999 0.3983 0.0 0
M  V30 13 O -0.5098 -3.585 0.0 0
M  V30 14 C 2.0713 -3.5531 0.0 0
M  V30 15 C 3.2823 3.0114 0.0 0
M  V30 16 C 4.541 0.8444 0.0 0
M  V30 17 C 4.541 -0.6214 0.0 0 CFG=1
M  V30 18 C 3.2823 -2.7883 0.0 0
M  V30 19 C 4.9075 0.4461 0.0 0
M  V30 20 N 5.752 -1.2906 0.0 0
M  V30 21 C 6.7239 -2.3741 0.0 0
M  V30 END ATOM
M  V30 BEGIN BOND
M  V30 1 1 1 2
M  V30 2 1 3 1 CFG=3
M  V30 3 2 2 4
M  V30 4 1 2 5
M  V30 5 1 3 6
M  V30 6 1 3 7
M  V30 7 1 4 8
M  V30 8 1 4 9
M  V30 9 2 5 10
M  V30 10 1 6 11
M  V30 11 1 6 12 CFG=1
M  V30 12 1 7 13 CFG=3
M  V30 13 1 7 14
M  V30 14 2 9 15
M  V30 15 1 10 16
M  V30 16 1 11 17
M  V30 17 1 11 18 CFG=3
M  V30 18 1 12 19
M  V30 19 1 17 20 CFG=1
M  V30 20 1 20 21
M  V30 21 1 5 6
M  V30 22 1 10 15
M  V30 23 1 14 18
M  V30 24 1 16 17
M  V30 25 1 19 20
M  V30 END BOND
M  V30 BEGIN COLLECTION
M  V30 MDLV30/STEABS ATOMS=(5 3 6 7 11 17)
M  V30 END COLLECTION
M  V30 END CTAB
M  END
>  <SMILES>
[H][C@@]12OC3=C(O)C=CC4=C3[C@@]11CCN(C)[C@]([H])(C4)[C@]1([H])CC[C@@H]2O

>  <INCHI_IDENTIFIER>
InChI=1S/C17H21NO3/c1-18-7-6-17-10-3-5-13(20)16(17)21-15-12(19)4-2-9(14(15)17)8-11(10)18/h2,4,10-11,13,16,19-20H,3,5-8H2,1H3/t10-,11+,13-,16-,17-/m0/s1

>  <INCHI_KEY>
IJVCSMSMFSCRME-KBQPJGBKSA-N

>  <FORMULA>
C17H21NO3

>  <MOLECULAR_WEIGHT>
287.3535

>  <DRUGBANK_ID>
DB01565

>  <DRUG_GROUPS>
experimental; illicit

>  <GENERIC_NAME>
Dihydromorphine

>  <SYNONYMS>


$$$$
Compound 101
Actelion Java MolfileCreator 2.0

  0  0  0  0  0  0              0 V3000
M  V30 BEGIN CTAB
M  V30 COUNTS 15 16 0 0 0
M  V30 BEGIN ATOM
M  V30 1 O 0.0 0.0 0.0 0
M  V30 2 C -1.4466 -0.4166 0.0 0
M  V30 3 C 0.8448 -1.1688 0.0 0
M  V30 4 C -1.4813 -1.8748 0.0 0
M  V30 5 C -2.7775 0.3587 0.0 0
M  V30 6 O -0.0694 -2.3377 0.0 0
M  V30 7 C -2.8122 -2.5692 0.0 0
M  V30 8 C -4.1084 -0.3356 0.0 0
M  V30 9 C -4.1432 -1.7822 0.0 0
M  V30 10 C -5.4394 0.4397 0.0 0
M  V30 11 C -6.7703 -0.2546 0.0 0 CFG=1
M  V30 12 N -8.1012 0.5323 0.0 0
M  V30 13 C -6.805 -1.7128 0.0 0
M  V30 14 C -9.4321 -0.162 0.0 0
M  V30 15 C -10.7631 0.6133 0.0 0
M  V30 END ATOM
M  V30 BEGIN BOND
M  V30 1 1 1 2
M  V30 2 1 1 3
M  V30 3 2 2 4
M  V30 4 1 2 5
M  V30 5 1 3 6
M  V30 6 1 4 7
M  V30 7 2 5 8
M  V30 8 2 7 9
M  V30 9 1 8 10
M  V30 10 1 10 11
M  V30 11 1 11 12 CFG=3
M  V30 12 1 11 13
M  V30 13 1 12 14
M  V30 14 1 14 15
M  V30 15 1 4 6
M  V30 16 1 8 9
M  V30 END BOND
M  V30 BEGIN COLLECTION
M  V30 MDLV30/STERAC1 ATOMS=(1 11)
M  V30 END COLLECTION
M  V30 END CTAB
M  END
>  <SMILES>
CCNC(C)CC1=CC2=C(OCO2)C=C1

>  <INCHI_IDENTIFIER>
InChI=1S/C12H17NO2/c1-3-13-9(2)6-10-4-5-11-12(7-10)15-8-14-11/h4-5,7,9,13H,3,6,8H2,1-2H3

>  <INCHI_KEY>
PVXVWWANJIWJOO-UHFFFAOYSA-N

>  <FORMULA>
C12H17NO2

>  <MOLECULAR_WEIGHT>
207.2689

>  <DRUGBANK_ID>
DB01566

>  <DRUG_GROUPS>
experimental; illicit

>  <GENERIC_NAME>
Methylenedioxyethamphetamine

>  <SYNONYMS>
(+/-)-MDE; 3,4-methylenedioxy-N-ethylamphetamine; MDE; n-ethyl MDA

$$$$
Compound 102
Actelion Java MolfileCreator 2.0

  0  0  0  0  0  0              0 V3000
M  V30 BEGIN CTAB
M  V30 COUNTS 21 23 0 0 0
M  V30 BEGIN ATOM
M  V30 1 Cl 0.0 0.0 0.0 0
M  V30 2 C -0.1597 1.5118 0.0 0
M  V30 3 C 1.0693 2.4213 0.0 0
M  V30 4 C -1.5855 2.2246 0.0 0
M  V30 5 C 0.8972 3.9946 0.0 0
M  V30 6 C -1.733 3.7979 0.0 0
M  V30 7 C 2.1878 4.6829 0.0 0
M  V30 8 C -0.467 4.6829 0.0 0
M  V30 9 N 2.4828 6.1578 0.0 0
M  V30 10 C 3.3063 3.8102 0.0 0
M  V30 11 N -0.8357 6.1578 0.0 0
M  V30 12 C 1.5363 7.35 0.0 0
M  V30 13 C 3.0481 2.3844 0.0 0
M  V30 14 C 4.646 4.4002 0.0 0
M  V30 15 C 0.0368 7.35 0.0 0
M  V30 16 C -2.3107 6.5265 0.0 0
M  V30 17 F 1.6347 1.8682 0.0 0
M  V30 18 C 4.1666 1.5118 0.0 0
M  V30 19 C 5.7645 3.5275 0.0 0
M  V30 20 O -0.6514 8.7143 0.0 0
M  V30 21 C 5.5064 2.1017 0.0 0
M  V30 END ATOM
M  V30 BEGIN BOND
M  V30 1 1 1 2
M  V30 2 2 2 3
M  V30 3 1 2 4
M  V30 4 1 3 5
M  V30 5 2 4 6
M  V30 6 1 5 7
M  V30 7 2 5 8
M  V30 8 2 7 9
M  V30 9 1 7 10
M  V30 10 1 8 11
M  V30 11 1 9 12
M  V30 12 2 10 13
M  V30 13 1 10 14
M  V30 14 1 11 15
M  V30 15 1 11 16
M  V30 16 1 13 17
M  V30 17 1 13 18
M  V30 18 2 14 19
M  V30 19 2 15 20
M  V30 20 2 18 21
M  V30 21 1 6 8
M  V30 22 1 12 15
M  V30 23 1 19 21
M  V30 END BOND
M  V30 END CTAB
M  END
>  <SMILES>
CN1C2=C(C=C(Cl)C=C2)C(=NCC1=O)C1=CC=CC=C1F

>  <INCHI_IDENTIFIER>
InChI=1S/C16H12ClFN2O/c1-20-14-7-6-10(17)8-12(14)16(19-9-15(20)21)11-4-2-3-5-13(11)18/h2-8H,9H2,1H3

>  <INCHI_KEY>
ROYOYTLGDLIGBX-UHFFFAOYSA-N

>  <FORMULA>
C16H12ClFN2O

>  <MOLECULAR_WEIGHT>
302.731

>  <DRUGBANK_ID>
DB01567

>  <DRUG_GROUPS>
experimental; illicit

>  <GENERIC_NAME>
Fludiazepam

>  <SYNONYMS>
7-chloro-5-(o-Fluorophenyl)-1,3-dihydro-1-methyl-2H-1,4-benzodiazepin-2-one; Fludiazepam; Fludiazepamum

$$$$
Compound 103
Actelion Java MolfileCreator 2.0

  0  0  0  0  0  0              0 V3000
M  V30 BEGIN CTAB
M  V30 COUNTS 23 27 0 0 0
M  V30 BEGIN ATOM
M  V30 1 O 0.0 0.0 0.0 0
M  V30 2 C 0.9065 1.4155 0.0 0
M  V30 3 C 0.9065 -1.4791 0.0 0 CFG=2
M  V30 4 C 0.8588 2.9105 0.0 0
M  V30 5 C 2.1153 0.7475 0.0 0
M  V30 6 C 2.1153 -0.7157 0.0 0 CFG=2
M  V30 7 C 0.8588 -2.8787 0.0 0 CFG=1
M  V30 8 O -0.5089 3.7057 0.0 0
M  V30 9 C 2.0676 3.6739 0.0 0
M  V30 10 C 3.324 1.5109 0.0 0
M  V30 11 C 3.324 -1.3837 0.0 0 CFG=1
M  V30 12 C 2.8946 0.3976 0.0 0
M  V30 13 O -0.5089 -3.5785 0.0 0
M  V30 14 C 2.0676 -3.5467 0.0 0
M  V30 15 C -0.5566 5.2803 0.0 0
M  V30 16 C 3.2763 3.0059 0.0 0
M  V30 17 C 4.5328 0.8429 0.0 0
M  V30 18 C 3.2763 -2.7833 0.0 0
M  V30 19 C 4.5328 -0.6202 0.0 0 CFG=1
M  V30 20 C 4.8986 0.4453 0.0 0
M  V30 21 N 5.7415 -1.2882 0.0 0 CHG=1 CFG=2
M  V30 22 O 6.0278 -2.7355 0.0 0 CHG=-1
M  V30 23 C 7.157 -1.6858 0.0 0
M  V30 END ATOM
M  V30 BEGIN BOND
M  V30 1 1 1 2
M  V30 2 1 3 1 CFG=3
M  V30 3 2 2 4
M  V30 4 1 2 5
M  V30 5 1 3 6
M  V30 6 1 3 7
M  V30 7 1 4 8
M  V30 8 1 4 9
M  V30 9 2 5 10
M  V30 10 1 6 11
M  V30 11 1 6 12 CFG=1
M  V30 12 1 7 13 CFG=3
M  V30 13 1 7 14
M  V30 14 1 8 15
M  V30 15 2 9 16
M  V30 16 1 10 17
M  V30 17 1 11 18 CFG=3
M  V30 18 1 11 19
M  V30 19 1 12 20
M  V30 20 1 19 21
M  V30 21 1 21 22 CFG=3
M  V30 22 1 21 23
M  V30 23 1 5 6
M  V30 24 1 10 16
M  V30 25 2 14 18
M  V30 26 1 19 17 CFG=1
M  V30 27 1 20 21
M  V30 END BOND
M  V30 BEGIN COLLECTION
M  V30 MDLV30/STEABS ATOMS=(6 3 6 7 11 19 21)
M  V30 END COLLECTION
M  V30 END CTAB
M  END
>  <SMILES>
[H][C@@]12OC3=C(OC)C=CC4=C3[C@@]11CC[N@+](C)([O-])[C@]([H])(C4)[C@]1([H])C=C[C@@H]2O

>  <INCHI_IDENTIFIER>
InChI=1S/C18H21NO4/c1-19(21)8-7-18-11-4-5-13(20)17(18)23-16-14(22-2)6-3-10(15(16)18)9-12(11)19/h3-6,11-13,17,20H,7-9H2,1-2H3/t11-,12+,13-,17-,18-,19-/m0/s1

>  <INCHI_KEY>
BDLSDHWCOJPHIE-KFUGMXNISA-N

>  <FORMULA>
C18H21NO4

>  <MOLECULAR_WEIGHT>
315.3636

>  <DRUGBANK_ID>
DB01568

>  <DRUG_GROUPS>
experimental; illicit

>  <GENERIC_NAME>
Codeine-N-oxide

>  <SYNONYMS>


$$$$
Compound 104
Actelion Java MolfileCreator 2.0

  0  0  0  0  0  0              0 V3000
M  V30 BEGIN CTAB
M  V30 COUNTS 25 28 0 0 0
M  V30 BEGIN ATOM
M  V30 1 O 0.0 0.0 0.0 0
M  V30 2 C 1.1886 0.7794 0.0 0
M  V30 3 C 1.1301 2.3188 0.0 0
M  V30 4 C 2.3967 0.1169 0.0 0
M  V30 5 C 2.3383 3.0982 0.0 0
M  V30 6 C -0.2143 3.0982 0.0 0
M  V30 7 C 3.5659 0.8963 0.0 0
M  V30 8 C 3.5074 2.4357 0.0 0 CFG=1
M  V30 9 O -1.5588 2.4357 0.0 0
M  V30 10 C 4.774 0.2338 0.0 0
M  V30 11 C 4.7156 3.2151 0.0 0 CFG=1
M  V30 12 C 3.449 3.9751 0.0 0
M  V30 13 C 5.9432 1.0132 0.0 0
M  V30 14 C 4.6571 4.7545 0.0 0 CFG=2
M  V30 15 C 5.8847 2.5526 0.0 0 CFG=1
M  V30 16 O 3.3126 5.534 0.0 0
M  V30 17 C 5.8263 5.534 0.0 0
M  V30 18 C 7.0929 3.3321 0.0 0 CFG=1
M  V30 19 C 7.0344 4.8715 0.0 0 CFG=1
M  V30 20 C 9.5481 3.3905 0.0 0
M  V30 21 C 8.2036 5.6509 0.0 0 CFG=2
M  V30 22 C 6.9759 6.4109 0.0 0
M  V30 23 C 9.4896 4.9299 0.0 0
M  V30 24 O 8.1451 7.1903 0.0 0
M  V30 25 C 9.3922 6.4303 0.0 0
M  V30 END ATOM
M  V30 BEGIN BOND
M  V30 1 2 1 2
M  V30 2 1 2 3
M  V30 3 1 2 4
M  V30 4 2 3 5
M  V30 5 1 3 6
M  V30 6 2 4 7
M  V30 7 1 5 8
M  V30 8 2 6 9
M  V30 9 1 7 10
M  V30 10 1 8 11
M  V30 11 1 8 12 CFG=1
M  V30 12 1 10 13
M  V30 13 1 11 14 CFG=1
M  V30 14 1 11 15
M  V30 15 1 14 16 CFG=3
M  V30 16 1 14 17
M  V30 17 1 15 18
M  V30 18 1 17 19
M  V30 19 1 18 20 CFG=1
M  V30 20 1 19 21
M  V30 21 1 19 22 CFG=1
M  V30 22 1 20 23
M  V30 23 1 21 24
M  V30 24 1 21 25 CFG=3
M  V30 25 1 7 8
M  V30 26 1 15 13 CFG=3
M  V30 27 1 18 19
M  V30 28 1 21 23
M  V30 END BOND
M  V30 BEGIN COLLECTION
M  V30 MDLV30/STEABS ATOMS=(7 8 11 14 15 18 19 21)
M  V30 END COLLECTION
M  V30 END CTAB
M  END
>  <SMILES>
[H][C@@]12CC[C@](C)(O)[C@@]1(C)C[C@@H](O)[C@@]1([H])[C@@]2([H])CCC2=CC(=O)C(C=O)=C[C@]12C

>  <INCHI_IDENTIFIER>
InChI=1S/C21H28O4/c1-19-9-12(11-22)16(23)8-13(19)4-5-14-15-6-7-21(3,25)20(15,2)10-17(24)18(14)19/h8-9,11,14-15,17-18,24-25H,4-7,10H2,1-3H3/t14-,15-,17+,18+,19-,20-,21-/m0/s1

>  <INCHI_KEY>
AMVODTGMYSRMNP-GNIMZFFESA-N

>  <FORMULA>
C21H28O4

>  <MOLECULAR_WEIGHT>
344.4446

>  <DRUGBANK_ID>
DB01569

>  <DRUG_GROUPS>
experimental; illicit

>  <GENERIC_NAME>
Formebolone

>  <SYNONYMS>
11-alpha,17-beta-Dihydroxy-17-methyl-3-oxoandrosta-1,4-diene-2-carboxaldehyde; 2-Formyl-11-alpha-hydroxy-delta(sup 1)-methyltestosterone; 2-formyl-11α-hydroxy-17α-methyl-δ1-testosterone; 2-Formyl-17-alpha-methylandrosta-1,4-diene-11-alpha,17-beta-diol-3-one; Esiclene; Formebolona; Formebolonum; Formyldienolone

$$$$
Compound 105
Actelion Java MolfileCreator 2.0

  0  0  0  0  0  0              0 V3000
M  V30 BEGIN CTAB
M  V30 COUNTS 27 29 0 0 0
M  V30 BEGIN ATOM
M  V30 1 O 0.0 0.0 0.0 0
M  V30 2 C 1.2694 0.7737 0.0 0
M  V30 3 N 2.5388 0.0483 0.0 0
M  V30 4 C 1.2331 2.3212 0.0 0
M  V30 5 C 3.8083 0.8342 0.0 0
M  V30 6 C 2.5026 -1.4266 0.0 0
M  V30 7 C -0.1088 3.1071 0.0 0
M  V30 8 C 3.772 2.3817 0.0 0
M  V30 9 C 5.0777 0.1088 0.0 0
M  V30 10 C 1.1606 -2.164 0.0 0
M  V30 11 C 3.772 -2.164 0.0 0
M  V30 12 C 5.0414 3.1675 0.0 0
M  V30 13 C 6.3472 0.8946 0.0 0
M  V30 14 C 1.1243 -3.639 0.0 0
M  V30 15 C -0.1813 -1.3782 0.0 0
M  V30 16 C 3.7357 -3.639 0.0 0
M  V30 17 C 6.3109 2.43 0.0 0
M  V30 18 N 2.3938 -4.3765 0.0 0
M  V30 19 C 2.3575 -5.8515 0.0 0
M  V30 20 C 1.0155 -6.589 0.0 0
M  V30 21 O -0.3264 -5.8031 0.0 0
M  V30 22 C 0.9792 -8.0639 0.0 0
M  V30 23 C 2.2487 -8.7893 0.0 0
M  V30 24 C -0.3626 -8.7893 0.0 0
M  V30 25 C 2.2124 -10.2643 0.0 0
M  V30 26 C -0.3989 -10.2643 0.0 0
M  V30 27 C 0.8704 -11.0018 0.0 0
M  V30 END ATOM
M  V30 BEGIN BOND
M  V30 1 2 1 2
M  V30 2 1 2 3
M  V30 3 1 2 4
M  V30 4 1 3 5
M  V30 5 1 3 6
M  V30 6 1 4 7
M  V30 7 2 5 8
M  V30 8 1 5 9
M  V30 9 1 6 10
M  V30 10 1 6 11
M  V30 11 1 8 12
M  V30 12 2 9 13
M  V30 13 1 10 14
M  V30 14 1 10 15
M  V30 15 1 11 16
M  V30 16 2 12 17
M  V30 17 1 14 18
M  V30 18 1 18 19
M  V30 19 1 19 20
M  V30 20 1 20 21
M  V30 21 1 20 22
M  V30 22 2 22 23
M  V30 23 1 22 24
M  V30 24 1 23 25
M  V30 25 2 24 26
M  V30 26 2 25 27
M  V30 27 1 13 17
M  V30 28 1 16 18
M  V30 29 1 26 27
M  V30 END BOND
M  V30 END CTAB
M  END
>  <SMILES>
CCC(=O)N(C1CCN(CC(O)C2=CC=CC=C2)CC1C)C1=CC=CC=C1

>  <INCHI_IDENTIFIER>
InChI=1S/C23H30N2O2/c1-3-23(27)25(20-12-8-5-9-13-20)21-14-15-24(16-18(21)2)17-22(26)19-10-6-4-7-11-19/h4-13,18,21-22,26H,3,14-17H2,1-2H3

>  <INCHI_KEY>
FRPRNNRJTCONEC-UHFFFAOYSA-N

>  <FORMULA>
C23H30N2O2

>  <MOLECULAR_WEIGHT>
366.4965

>  <DRUGBANK_ID>
DB01570

>  <DRUG_GROUPS>
illicit

>  <GENERIC_NAME>
Ohmefentanyl

>  <SYNONYMS>
Beta-hydroxy-3-methylfentanyl; OMF; β-hydroxy-3-methylfentanyl

$$$$
Compound 106
Actelion Java MolfileCreator 2.0

  0  0  0  0  0  0              0 V3000
M  V30 BEGIN CTAB
M  V30 COUNTS 26 28 0 0 0
M  V30 BEGIN ATOM
M  V30 1 O 0.0 0.0 0.0 0
M  V30 2 C 1.2712 0.7748 0.0 0
M  V30 3 N 2.5425 0.0484 0.0 0
M  V30 4 C 1.2349 2.3246 0.0 0
M  V30 5 C 3.8138 0.8354 0.0 0
M  V30 6 C 2.5062 -1.4286 0.0 0
M  V30 7 C -0.1089 3.1116 0.0 0
M  V30 8 C 3.7775 2.3851 0.0 0
M  V30 9 C 5.0851 0.1089 0.0 0
M  V30 10 C 1.1623 -2.1672 0.0 0
M  V30 11 C 3.7775 -2.1672 0.0 0
M  V30 12 C 5.0488 3.1721 0.0 0
M  V30 13 C 6.3564 0.8959 0.0 0
M  V30 14 C 1.126 -3.6443 0.0 0
M  V30 15 C -0.1816 -1.3923 0.0 0
M  V30 16 C 3.7412 -3.6443 0.0 0
M  V30 17 C 6.3201 2.4336 0.0 0
M  V30 18 N 2.3972 -4.3829 0.0 0
M  V30 19 C 2.3609 -5.86 0.0 0
M  V30 20 C 1.017 -6.5986 0.0 0
M  V30 21 C 0.9807 -8.0757 0.0 0
M  V30 22 C 2.252 -8.8022 0.0 0
M  V30 23 C -0.3632 -8.8022 0.0 0
M  V30 24 C 2.2156 -10.2793 0.0 0
M  V30 25 C -0.3995 -10.2793 0.0 0
M  V30 26 C 0.8717 -11.0178 0.0 0
M  V30 END ATOM
M  V30 BEGIN BOND
M  V30 1 2 1 2
M  V30 2 1 2 3
M  V30 3 1 2 4
M  V30 4 1 3 5
M  V30 5 1 3 6
M  V30 6 1 4 7
M  V30 7 2 5 8
M  V30 8 1 5 9
M  V30 9 1 6 10
M  V30 10 1 6 11
M  V30 11 1 8 12
M  V30 12 2 9 13
M  V30 13 1 10 14
M  V30 14 1 10 15
M  V30 15 1 11 16
M  V30 16 2 12 17
M  V30 17 1 14 18
M  V30 18 1 18 19
M  V30 19 1 19 20
M  V30 20 1 20 21
M  V30 21 2 21 22
M  V30 22 1 21 23
M  V30 23 1 22 24
M  V30 24 2 23 25
M  V30 25 2 24 26
M  V30 26 1 13 17
M  V30 27 1 16 18
M  V30 28 1 25 26
M  V30 END BOND
M  V30 END CTAB
M  END
>  <SMILES>
CCC(=O)N(C1CCN(CCC2=CC=CC=C2)CC1C)C1=CC=CC=C1

>  <INCHI_IDENTIFIER>
InChI=1S/C23H30N2O/c1-3-23(26)25(21-12-8-5-9-13-21)22-15-17-24(18-19(22)2)16-14-20-10-6-4-7-11-20/h4-13,19,22H,3,14-18H2,1-2H3

>  <INCHI_KEY>
MLQRZXNZHAOCHQ-UHFFFAOYSA-N

>  <FORMULA>
C23H30N2O

>  <MOLECULAR_WEIGHT>
350.4971

>  <DRUGBANK_ID>
DB01571

>  <DRUG_GROUPS>
illicit

>  <GENERIC_NAME>
3-Methylfentanyl

>  <SYNONYMS>
3-MF; mefentanyl

$$$$
Compound 107
Actelion Java MolfileCreator 2.0

  0  0  0  0  0  0              0 V3000
M  V30 BEGIN CTAB
M  V30 COUNTS 22 25 0 0 0
M  V30 BEGIN ATOM
M  V30 1 O 0.0 0.0 0.0 0
M  V30 2 C 1.2252 0.7785 0.0 0
M  V30 3 C 1.2125 2.4123 0.0 0
M  V30 4 C 2.5654 0.0127 0.0 0
M  V30 5 C 2.5527 3.2291 0.0 0
M  V30 6 C 3.9056 0.8423 0.0 0 CFG=1
M  V30 7 C 3.8801 2.4378 0.0 0 CFG=1
M  V30 8 C 5.1692 0.1021 0.0 0
M  V30 9 C 5.1692 3.2291 0.0 0 CFG=2
M  V30 10 C 3.8545 3.9439 0.0 0
M  V30 11 C 6.4455 0.9189 0.0 0
M  V30 12 C 6.3945 2.5144 0.0 0 CFG=1
M  V30 13 C 5.1309 4.7225 0.0 0
M  V30 14 C 7.6198 3.3057 0.0 0 CFG=1
M  V30 15 C 6.3562 5.5138 0.0 0
M  V30 16 C 7.5815 4.799 0.0 0 CFG=2
M  V30 17 C 8.9727 2.8845 0.0 0
M  V30 18 C 8.9344 5.2968 0.0 0 CFG=2
M  V30 19 C 7.5432 6.3051 0.0 0
M  V30 20 C 9.7768 4.097 0.0 0
M  V30 21 O 10.0831 6.1775 0.0 0
M  V30 22 C 8.4366 6.7263 0.0 0
M  V30 END ATOM
M  V30 BEGIN BOND
M  V30 1 2 1 2
M  V30 2 1 2 3
M  V30 3 1 2 4
M  V30 4 2 3 5
M  V30 5 1 6 4 CFG=1
M  V30 6 1 5 7
M  V30 7 1 6 8
M  V30 8 1 7 9
M  V30 9 1 7 10 CFG=1
M  V30 10 1 8 11
M  V30 11 1 9 12
M  V30 12 1 9 13 CFG=1
M  V30 13 1 12 14
M  V30 14 1 13 15
M  V30 15 1 14 16
M  V30 16 1 14 17 CFG=1
M  V30 17 1 16 18
M  V30 18 1 16 19 CFG=1
M  V30 19 1 17 20
M  V30 20 1 18 21 CFG=1
M  V30 21 1 18 22
M  V30 22 1 6 7
M  V30 23 1 12 11 CFG=3
M  V30 24 1 15 16
M  V30 25 1 18 20
M  V30 END BOND
M  V30 BEGIN COLLECTION
M  V30 MDLV30/STERAC1 ATOMS=(7 6 7 9 12 14 16 18)
M  V30 END COLLECTION
M  V30 END CTAB
M  END
>  <SMILES>
[H][C@@]12CC[C@](C)(O)[C@@]1(C)CC[C@@]1([H])[C@@]2([H])CC[C@@]2([H])CC(=O)C=C[C@]12C

>  <INCHI_IDENTIFIER>
InChI=1S/C20H30O2/c1-18-9-6-14(21)12-13(18)4-5-15-16(18)7-10-19(2)17(15)8-11-20(19,3)22/h6,9,13,15-17,22H,4-5,7-8,10-12H2,1-3H3/t13-,15+,16-,17-,18-,19-,20-/m0/s1

>  <INCHI_KEY>
JRNSSSJKIGAFCT-YDSAWKJFSA-N

>  <FORMULA>
C20H30O2

>  <MOLECULAR_WEIGHT>
302.458

>  <DRUGBANK_ID>
DB01572

>  <DRUG_GROUPS>
experimental; illicit

>  <GENERIC_NAME>
Methyl-1-testosterone

>  <SYNONYMS>
(+)-Methyl-1-testosterone; (5α,17β)-17-Hydroxy-17-methylandrost-1-en-3-one; 17alpha-Methyl-17beta-hydroxy-5alpha-androst-1-en-3-one; 17alpha-Methyl-17beta-hydroxy-delta1-5alpha-androsten-3-one; 17beta-Hydroxy-17alpha-methyl-5alpha-androst-1-ene-3-one

$$$$
Compound 108
Actelion Java MolfileCreator 2.0

  0  0  0  0  0  0              0 V3000
M  V30 BEGIN CTAB
M  V30 COUNTS 28 33 0 0 0
M  V30 BEGIN ATOM
M  V30 1 O 0.0 0.0 0.0 0
M  V30 2 C 0.8975 1.4013 0.0 0
M  V30 3 C 0.8975 -1.4643 0.0 0 CFG=2
M  V30 4 C 0.8502 2.8815 0.0 0
M  V30 5 C 2.0942 0.74 0.0 0
M  V30 6 C 2.0942 -0.7085 0.0 0 CFG=2
M  V30 7 C 0.8502 -2.85 0.0 0 CFG=1
M  V30 8 O -0.5038 3.6688 0.0 0
M  V30 9 C 2.0469 3.6373 0.0 0
M  V30 10 C 3.2909 1.4958 0.0 0
M  V30 11 C 3.2909 -1.3699 0.0 0 CFG=1
M  V30 12 C 2.8657 0.3936 0.0 0
M  V30 13 O -0.5038 -3.5428 0.0 0
M  V30 14 C 2.0469 -3.5113 0.0 0
M  V30 15 C -0.5511 5.2276 0.0 0
M  V30 16 C 3.2436 2.976 0.0 0
M  V30 17 C 4.4876 0.8345 0.0 0
M  V30 18 C 3.2436 -2.7555 0.0 0
M  V30 19 C 4.4876 -0.614 0.0 0 CFG=1
M  V30 20 C 4.8497 0.4408 0.0 0
M  V30 21 C -1.9052 6.0149 0.0 0
M  V30 22 N 5.6843 -1.2754 0.0 0
M  V30 23 C -3.2594 5.3221 0.0 0
M  V30 24 C -1.9525 7.5738 0.0 0
M  V30 25 C 6.6763 -2.3461 0.0 0
M  V30 26 C -4.6135 6.1094 0.0 0
M  V30 27 C -3.3066 8.3611 0.0 0
M  V30 28 C -4.6608 7.6683 0.0 0
M  V30 END ATOM
M  V30 BEGIN BOND
M  V30 1 1 1 2
M  V30 2 1 3 1 CFG=3
M  V30 3 2 2 4
M  V30 4 1 2 5
M  V30 5 1 3 6
M  V30 6 1 3 7
M  V30 7 1 4 8
M  V30 8 1 4 9
M  V30 9 2 5 10
M  V30 10 1 6 11
M  V30 11 1 6 12 CFG=1
M  V30 12 1 7 13 CFG=3
M  V30 13 1 7 14
M  V30 14 1 8 15
M  V30 15 2 9 16
M  V30 16 1 10 17
M  V30 17 1 11 18 CFG=3
M  V30 18 1 11 19
M  V30 19 1 12 20
M  V30 20 1 15 21
M  V30 21 1 19 22 CFG=1
M  V30 22 2 21 23
M  V30 23 1 21 24
M  V30 24 1 22 25
M  V30 25 1 23 26
M  V30 26 2 24 27
M  V30 27 2 26 28
M  V30 28 1 5 6
M  V30 29 1 10 16
M  V30 30 2 14 18
M  V30 31 1 17 19
M  V30 32 1 20 22
M  V30 33 1 27 28
M  V30 END BOND
M  V30 BEGIN COLLECTION
M  V30 MDLV30/STEABS ATOMS=(5 3 6 7 11 19)
M  V30 END COLLECTION
M  V30 END CTAB
M  END
>  <SMILES>
[H][C@@]12OC3=C(OCC4=CC=CC=C4)C=CC4=C3[C@@]11CCN(C)[C@]([H])(C4)[C@]1([H])C=C[C@@H]2O

>  <INCHI_IDENTIFIER>
InChI=1S/C24H25NO3/c1-25-12-11-24-17-8-9-19(26)23(24)28-22-20(27-14-15-5-3-2-4-6-15)10-7-16(21(22)24)13-18(17)25/h2-10,17-19,23,26H,11-14H2,1H3/t17-,18+,19-,23-,24-/m0/s1

>  <INCHI_KEY>
RDJGWRFTDZZXSM-RNWLQCGYSA-N

>  <FORMULA>
C24H25NO3

>  <MOLECULAR_WEIGHT>
375.4602

>  <DRUGBANK_ID>
DB01573

>  <DRUG_GROUPS>
experimental; illicit

>  <GENERIC_NAME>
Benzylmorphine

>  <SYNONYMS>


$$$$
Compound 109
Actelion Java MolfileCreator 2.0

  0  0  0  0  0  0              0 V3000
M  V30 BEGIN CTAB
M  V30 COUNTS 18 20 0 0 0
M  V30 BEGIN ATOM
M  V30 1 N 0.0 0.0 0.0 0
M  V30 2 C -1.0962 -1.0269 0.0 0
M  V30 3 C 1.4077 -0.3461 0.0 0
M  V30 4 C -0.4154 1.4769 0.0 0
M  V30 5 C -2.1924 0.0692 0.0 0
M  V30 6 C -2.4231 -1.7193 0.0 0
M  V30 7 C 0.1615 -1.7193 0.0 0
M  V30 8 C 2.4347 0.75 0.0 0
M  V30 9 C 0.6115 2.5731 0.0 0
M  V30 10 C -1.8462 1.5462 0.0 0
M  V30 11 C -3.6693 -0.2769 0.0 0
M  V30 12 C -2.4578 -3.1732 0.0 0
M  V30 13 C 0.1269 -3.1732 0.0 0
M  V30 14 C 2.0193 2.227 0.0 0
M  V30 15 C -2.9424 2.6424 0.0 0
M  V30 16 C -4.7655 0.8192 0.0 0
M  V30 17 C -1.2 -3.9001 0.0 0
M  V30 18 C -4.4194 2.2962 0.0 0
M  V30 END ATOM
M  V30 BEGIN BOND
M  V30 1 1 1 2
M  V30 2 1 1 3
M  V30 3 1 1 4
M  V30 4 1 2 5
M  V30 5 1 2 6
M  V30 6 1 2 7
M  V30 7 1 3 8
M  V30 8 1 4 9
M  V30 9 2 5 10
M  V30 10 1 5 11
M  V30 11 1 6 12
M  V30 12 1 7 13
M  V30 13 1 8 14
M  V30 14 1 10 15
M  V30 15 2 11 16
M  V30 16 1 12 17
M  V30 17 2 15 18
M  V30 18 1 9 14
M  V30 19 1 13 17
M  V30 20 1 16 18
M  V30 END BOND
M  V30 END CTAB
M  END
>  <SMILES>
C1CCN(CC1)C1(CCCCC1)C1=CC=CC=C1

>  <INCHI_IDENTIFIER>
InChI=1S/C17H25N/c1-4-10-16(11-5-1)17(12-6-2-7-13-17)18-14-8-3-9-15-18/h1,4-5,10-11H,2-3,6-9,12-15H2

>  <INCHI_KEY>
JTJMJGYZQZDUJJ-UHFFFAOYSA-N

>  <FORMULA>
C17H25N

>  <MOLECULAR_WEIGHT>
243.3871

>  <DRUGBANK_ID>
DB03575

>  <DRUG_GROUPS>
illicit

>  <GENERIC_NAME>
Phencyclidine

>  <SYNONYMS>
1-(1-Phenylcyclohexyl)piperidine; Fenciclidina; PCP; Phencyclidine; Phencyclidinum

$$$$
Compound 110
Actelion Java MolfileCreator 2.0

  0  0  0  0  0  0              0 V3000
M  V30 BEGIN CTAB
M  V30 COUNTS 19 21 0 0 0
M  V30 BEGIN ATOM
M  V30 1 O 0.0 0.0 0.0 0
M  V30 2 C -0.0354 1.5133 0.0 0
M  V30 3 N -1.3477 2.2699 0.0 0
M  V30 4 C 1.2059 2.2699 0.0 0
M  V30 5 C -2.6601 1.5606 0.0 0
M  V30 6 C -1.3832 3.7832 0.0 0
M  V30 7 C 1.1704 3.7832 0.0 0
M  V30 8 C 2.4946 1.5251 0.0 0
M  V30 9 C -3.9724 2.3172 0.0 0
M  V30 10 C -2.6955 0.1182 0.0 0
M  V30 11 N -0.1418 4.5517 0.0 0
M  V30 12 C -2.6955 4.5517 0.0 0
M  V30 13 C 2.4591 4.599 0.0 0
M  V30 14 C 3.7951 2.3054 0.0 0
M  V30 15 C -5.2847 1.6079 0.0 0
M  V30 16 C -4.0079 3.8305 0.0 0
M  V30 17 C -4.0079 -0.5911 0.0 0
M  V30 18 C 3.7596 3.866 0.0 0
M  V30 19 C -5.3202 0.1655 0.0 0
M  V30 END ATOM
M  V30 BEGIN BOND
M  V30 1 2 1 2
M  V30 2 1 2 3
M  V30 3 1 2 4
M  V30 4 1 3 5
M  V30 5 1 3 6
M  V30 6 2 4 7
M  V30 7 1 4 8
M  V30 8 2 5 9
M  V30 9 1 5 10
M  V30 10 2 6 11
M  V30 11 1 6 12
M  V30 12 1 7 13
M  V30 13 2 8 14
M  V30 14 1 9 15
M  V30 15 1 9 16
M  V30 16 2 10 17
M  V30 17 2 13 18
M  V30 18 2 15 19
M  V30 19 1 7 11
M  V30 20 1 14 18
M  V30 21 1 17 19
M  V30 END BOND
M  V30 END CTAB
M  END
>  <SMILES>
CC1=CC=CC=C1N1C(C)=NC2=CC=CC=C2C1=O

>  <INCHI_IDENTIFIER>
InChI=1S/C16H14N2O/c1-11-7-3-6-10-15(11)18-12(2)17-14-9-5-4-8-13(14)16(18)19/h3-10H,1-2H3

>  <INCHI_KEY>
JEYCTXHKTXCGPB-UHFFFAOYSA-N

>  <FORMULA>
C16H14N2O

>  <MOLECULAR_WEIGHT>
250.2952

>  <DRUGBANK_ID>
DB04833

>  <DRUG_GROUPS>
illicit; withdrawn

>  <GENERIC_NAME>
Methaqualone

>  <SYNONYMS>
metacualona; Methaqualone

$$$$
Compound 111
Actelion Java MolfileCreator 2.0

  0  0  0  0  0  0              0 V3000
M  V30 BEGIN CTAB
M  V30 COUNTS 25 27 0 0 0
M  V30 BEGIN ATOM
M  V30 1 O 0.0 0.0 0.0 0
M  V30 2 C -1.2865 0.8026 0.0 0
M  V30 3 O -1.2865 2.3015 0.0 0
M  V30 4 C -2.6084 0.0708 0.0 0
M  V30 5 C -3.895 0.8616 0.0 0
M  V30 6 C -5.2287 0.1062 0.0 0
M  V30 7 C -6.5152 0.897 0.0 0
M  V30 8 C -7.8372 0.1416 0.0 0
M  V30 9 C -9.1237 0.9442 0.0 0
M  V30 10 N -10.4574 0.1888 0.0 0
M  V30 11 C -11.744 0.9796 0.0 0
M  V30 12 C -13.1721 0.4485 0.0 0
M  V30 13 C -11.3545 2.396 0.0 0
M  V30 14 C -14.4941 1.2157 0.0 0
M  V30 15 C -13.2075 -0.9914 0.0 0
M  V30 16 C -12.2161 3.6471 0.0 0
M  V30 17 C -9.9263 2.5494 0.0 0
M  V30 18 C -15.8042 0.4957 0.0 0
M  V30 19 C -14.7773 2.7265 0.0 0
M  V30 20 C -14.5177 -1.7114 0.0 0
M  V30 21 C -11.6023 5.0044 0.0 0
M  V30 22 C -13.7033 3.7651 0.0 0
M  V30 23 C -9.3125 3.9068 0.0 0
M  V30 24 C -15.8396 -0.9442 0.0 0
M  V30 25 C -10.1624 5.1579 0.0 0
M  V30 END ATOM
M  V30 BEGIN BOND
M  V30 1 2 1 2
M  V30 2 1 2 3
M  V30 3 1 2 4
M  V30 4 1 4 5
M  V30 5 1 5 6
M  V30 6 1 6 7
M  V30 7 1 7 8
M  V30 8 1 8 9
M  V30 9 1 9 10
M  V30 10 1 10 11
M  V30 11 1 11 12
M  V30 12 1 11 13
M  V30 13 2 12 14
M  V30 14 1 12 15
M  V30 15 2 13 16
M  V30 16 1 13 17
M  V30 17 1 14 18
M  V30 18 1 14 19
M  V30 19 2 15 20
M  V30 20 1 16 21
M  V30 21 1 16 22
M  V30 22 2 17 23
M  V30 23 2 18 24
M  V30 24 2 21 25
M  V30 25 1 19 22
M  V30 26 1 20 24
M  V30 27 1 23 25
M  V30 END BOND
M  V30 END CTAB
M  END
>  <SMILES>
OC(=O)CCCCCCNC1C2=CC=CC=C2CCC2=CC=CC=C12

>  <INCHI_IDENTIFIER>
InChI=1S/C22H27NO2/c24-21(25)13-3-1-2-8-16-23-22-19-11-6-4-9-17(19)14-15-18-10-5-7-12-20(18)22/h4-7,9-12,22-23H,1-3,8,13-16H2,(H,24,25)

>  <INCHI_KEY>
ONNOFKFOZAJDHT-UHFFFAOYSA-N

>  <FORMULA>
C22H27NO2

>  <MOLECULAR_WEIGHT>
337.463

>  <DRUGBANK_ID>
DB04836

>  <DRUG_GROUPS>
illicit; withdrawn

>  <GENERIC_NAME>
Amineptine

>  <SYNONYMS>
Amineptino; Amineptinum

$$$$
Compound 112
Actelion Java MolfileCreator 2.0

  0  0  0  0  0  0              0 V3000
M  V30 BEGIN CTAB
M  V30 COUNTS 31 34 0 0 0
M  V30 BEGIN ATOM
M  V30 1 O 0.0 0.0 0.0 0
M  V30 2 C -0.3027 -1.3984 0.0 0
M  V30 3 N -1.7155 -1.8597 0.0 0
M  V30 4 C 0.764 -2.2922 0.0 0
M  V30 5 C -2.0183 -3.2581 0.0 0
M  V30 6 C -3.5608 -0.3027 0.0 0
M  V30 7 C 2.0903 -1.7443 0.0 0
M  V30 8 C -0.9514 -4.1663 0.0 0
M  V30 9 C -3.4311 -3.7194 0.0 0
M  V30 10 C -2.494 0.6775 0.0 0
M  V30 11 C -4.3537 -1.5281 0.0 0
M  V30 12 C -4.3537 1.0091 0.0 0
M  V30 13 C -1.2542 -5.5647 0.0 0
M  V30 14 C -3.7338 -5.1178 0.0 0
M  V30 15 C -2.7968 2.1624 0.0 0
M  V30 16 C -1.1677 0.2162 0.0 0
M  V30 17 C -5.8675 -1.4848 0.0 0
M  V30 18 C -5.8675 1.0524 0.0 0
M  V30 19 C -2.667 -6.026 0.0 0
M  V30 20 C -1.7299 3.1427 0.0 0
M  V30 21 C -0.1009 1.1965 0.0 0
M  V30 22 N -6.6604 -0.1729 0.0 0
M  V30 23 C -0.4036 2.6814 0.0 0
M  V30 24 C -8.1741 -0.1297 0.0 0
M  V30 25 C -8.967 1.1821 0.0 0
M  V30 26 C -10.4807 1.2254 0.0 0
M  V30 27 C -11.2737 0.0 0.0 0
M  V30 28 C -11.2737 2.5373 0.0 0
M  V30 29 C -12.7874 0.0432 0.0 0
M  V30 30 C -12.7874 2.5805 0.0 0
M  V30 31 C -13.5803 1.3551 0.0 0
M  V30 END ATOM
M  V30 BEGIN BOND
M  V30 1 2 1 2
M  V30 2 1 2 3
M  V30 3 1 2 4
M  V30 4 1 3 5
M  V30 5 1 3 6
M  V30 6 1 4 7
M  V30 7 2 5 8
M  V30 8 1 5 9
M  V30 9 1 6 10
M  V30 10 1 6 11
M  V30 11 1 6 12
M  V30 12 1 8 13
M  V30 13 2 9 14
M  V30 14 2 10 15
M  V30 15 1 10 16
M  V30 16 1 11 17
M  V30 17 1 12 18
M  V30 18 2 13 19
M  V30 19 1 15 20
M  V30 20 2 16 21
M  V30 21 1 17 22
M  V30 22 2 20 23
M  V30 23 1 22 24
M  V30 24 1 24 25
M  V30 25 1 25 26
M  V30 26 2 26 27
M  V30 27 1 26 28
M  V30 28 1 27 29
M  V30 29 2 28 30
M  V30 30 2 29 31
M  V30 31 1 14 19
M  V30 32 1 18 22
M  V30 33 1 21 23
M  V30 34 1 30 31
M  V30 END BOND
M  V30 END CTAB
M  END
>  <SMILES>
CCC(=O)N(C1=CC=CC=C1)C1(CCN(CCC2=CC=CC=C2)CC1)C1=CC=CC=C1

>  <INCHI_IDENTIFIER>
InChI=1S/C28H32N2O/c1-2-27(31)30(26-16-10-5-11-17-26)28(25-14-8-4-9-15-25)19-22-29(23-20-28)21-18-24-12-6-3-7-13-24/h3-17H,2,18-23H2,1H3

>  <INCHI_KEY>
BXCJXJLHYMWMQU-UHFFFAOYSA-N

>  <FORMULA>
C28H32N2O

>  <MOLECULAR_WEIGHT>
412.577

>  <DRUGBANK_ID>
DB09168

>  <DRUG_GROUPS>
illicit

>  <GENERIC_NAME>
4-Phenylfentanyl

>  <SYNONYMS>
N-(1-Phenethyl-4-phenyl-4-piperidyl)-N-phenyl-propanamide

$$$$
Compound 113
Actelion Java MolfileCreator 2.0

  0  0  0  0  0  0              0 V3000
M  V30 BEGIN CTAB
M  V30 COUNTS 28 30 0 0 0
M  V30 BEGIN ATOM
M  V30 1 O 0.0 0.0 0.0 0
M  V30 2 C 1.2685 0.7852 0.0 0
M  V30 3 N 2.537 0.0483 0.0 0
M  V30 4 C 1.2322 2.3316 0.0 0
M  V30 5 C 3.8055 0.8336 0.0 0
M  V30 6 C 2.5008 -1.4255 0.0 0 CFG=2
M  V30 7 C -0.1087 3.1169 0.0 0
M  V30 8 C 3.7693 2.38 0.0 0
M  V30 9 C 5.0741 0.0966 0.0 0
M  V30 10 C 1.1598 -2.1504 0.0 0 CFG=1
M  V30 11 C 3.7693 -2.1504 0.0 0
M  V30 12 C 5.0378 3.1652 0.0 0
M  V30 13 C 6.3426 0.8819 0.0 0
M  V30 14 C 1.1235 -3.6243 0.0 0
M  V30 15 C -0.1812 -1.3772 0.0 0
M  V30 16 C 3.7331 -3.6243 0.0 0
M  V30 17 C 6.3064 2.4283 0.0 0
M  V30 18 N 2.392 -4.3492 0.0 0
M  V30 19 C -1.5222 -2.1021 0.0 0
M  V30 20 C 2.3558 -5.8231 0.0 0
M  V30 21 C -2.8632 -1.3168 0.0 0
M  V30 22 C 1.0148 -6.548 0.0 0
M  V30 23 C 0.9785 -8.0219 0.0 0
M  V30 24 C 2.2471 -8.7589 0.0 0
M  V30 25 C -0.3624 -8.7589 0.0 0
M  V30 26 C 2.2108 -10.2328 0.0 0
M  V30 27 C -0.3986 -10.2328 0.0 0
M  V30 28 C 0.8698 -10.9697 0.0 0
M  V30 END ATOM
M  V30 BEGIN BOND
M  V30 1 2 1 2
M  V30 2 1 2 3
M  V30 3 1 2 4
M  V30 4 1 3 5
M  V30 5 1 6 3 CFG=1
M  V30 6 1 4 7
M  V30 7 2 5 8
M  V30 8 1 5 9
M  V30 9 1 6 10
M  V30 10 1 6 11
M  V30 11 1 8 12
M  V30 12 2 9 13
M  V30 13 1 10 14
M  V30 14 1 10 15 CFG=1
M  V30 15 1 11 16
M  V30 16 2 12 17
M  V30 17 1 14 18
M  V30 18 1 15 19
M  V30 19 1 18 20
M  V30 20 2 19 21
M  V30 21 1 20 22
M  V30 22 1 22 23
M  V30 23 2 23 24
M  V30 24 1 23 25
M  V30 25 1 24 26
M  V30 26 2 25 27
M  V30 27 2 26 28
M  V30 28 1 13 17
M  V30 29 1 16 18
M  V30 30 1 27 28
M  V30 END BOND
M  V30 BEGIN COLLECTION
M  V30 MDLV30/STERAC1 ATOMS=(2 6 10)
M  V30 END COLLECTION
M  V30 END CTAB
M  END
>  <SMILES>
CCC(=O)N([C@@H]1CCN(CCC2=CC=CC=C2)C[C@@H]1CC=C)C1=CC=CC=C1

>  <INCHI_IDENTIFIER>
InChI=1S/C25H32N2O/c1-3-11-22-20-26(18-16-21-12-7-5-8-13-21)19-17-24(22)27(25(28)4-2)23-14-9-6-10-15-23/h3,5-10,12-15,22,24H,1,4,11,16-20H2,2H3/t22-,24+/m0/s1

>  <INCHI_KEY>
BZXKQFFMDLTPJL-LADGPHEKSA-N

>  <FORMULA>
C25H32N2O

>  <MOLECULAR_WEIGHT>
376.544

>  <DRUGBANK_ID>
DB09169

>  <DRUG_GROUPS>
illicit

>  <GENERIC_NAME>
3-Allylfentanyl

>  <SYNONYMS>


$$$$
Compound 114
Actelion Java MolfileCreator 2.0

  0  0  0  0  0  0              0 V3000
M  V30 BEGIN CTAB
M  V30 COUNTS 25 27 0 0 0
M  V30 BEGIN ATOM
M  V30 1 S 0.0 0.0 0.0 0
M  V30 2 C 1.1485 0.9113 0.0 0
M  V30 3 C 0.4369 -1.3607 0.0 0
M  V30 4 C 2.322 0.0749 0.0 0
M  V30 5 C 1.1111 2.4219 0.0 0 CFG=1
M  V30 6 C 1.8601 -1.3233 0.0 0
M  V30 7 O 2.3595 3.2084 0.0 0
M  V30 8 C -0.1997 3.2084 0.0 0
M  V30 9 N -0.2372 4.8064 0.0 0
M  V30 10 C 0.9987 5.518 0.0 0
M  V30 11 C -1.548 5.518 0.0 0
M  V30 12 C 0.9612 7.1035 0.0 0
M  V30 13 C -1.5855 7.1035 0.0 0
M  V30 14 C -0.3495 7.89 0.0 0
M  V30 15 N -0.387 9.4006 0.0 0
M  V30 16 C 0.8489 10.1872 0.0 0
M  V30 17 C -1.6978 10.1872 0.0 0
M  V30 18 C 0.8114 11.6978 0.0 0
M  V30 19 C 2.1722 9.4755 0.0 0
M  V30 20 O -1.7353 11.6978 0.0 0
M  V30 21 C -3.0961 9.4755 0.0 0
M  V30 22 C 2.0599 12.4843 0.0 0
M  V30 23 C 3.4082 10.2621 0.0 0
M  V30 24 C -4.4069 10.2621 0.0 0
M  V30 25 C 3.3707 11.7727 0.0 0
M  V30 END ATOM
M  V30 BEGIN BOND
M  V30 1 1 1 2
M  V30 2 1 1 3
M  V30 3 2 2 4
M  V30 4 1 2 5
M  V30 5 2 3 6
M  V30 6 1 5 7 CFG=3
M  V30 7 1 5 8
M  V30 8 1 8 9
M  V30 9 1 9 10
M  V30 10 1 9 11
M  V30 11 1 10 12
M  V30 12 1 11 13
M  V30 13 1 12 14
M  V30 14 1 14 15
M  V30 15 1 15 16
M  V30 16 1 15 17
M  V30 17 2 16 18
M  V30 18 1 16 19
M  V30 19 2 17 20
M  V30 20 1 17 21
M  V30 21 1 18 22
M  V30 22 2 19 23
M  V30 23 1 21 24
M  V30 24 2 22 25
M  V30 25 1 4 6
M  V30 26 1 13 14
M  V30 27 1 23 25
M  V30 END BOND
M  V30 BEGIN COLLECTION
M  V30 MDLV30/STERAC1 ATOMS=(1 5)
M  V30 END COLLECTION
M  V30 END CTAB
M  END
>  <SMILES>
CCC(=O)N(C1CCN(CC(O)C2=CC=CS2)CC1)C1=CC=CC=C1

>  <INCHI_IDENTIFIER>
InChI=1S/C20H26N2O2S/c1-2-20(24)22(16-7-4-3-5-8-16)17-10-12-21(13-11-17)15-18(23)19-9-6-14-25-19/h3-9,14,17-18,23H,2,10-13,15H2,1H3

>  <INCHI_KEY>
GLAAETOTOUGGSB-UHFFFAOYSA-N

>  <FORMULA>
C20H26N2O2S

>  <MOLECULAR_WEIGHT>
358.5

>  <DRUGBANK_ID>
DB09170

>  <DRUG_GROUPS>
illicit

>  <GENERIC_NAME>
β-Hydroxythiofentanyl

>  <SYNONYMS>
beta-Hydroxythiofentanyl

$$$$
Compound 115
Actelion Java MolfileCreator 2.0

  0  0  0  0  0  0              0 V3000
M  V30 BEGIN CTAB
M  V30 COUNTS 26 28 0 0 0
M  V30 BEGIN ATOM
M  V30 1 O 0.0 0.0 0.0 0
M  V30 2 C 1.2709 0.7867 0.0 0
M  V30 3 N 2.5418 0.0484 0.0 0
M  V30 4 C 1.2345 2.336 0.0 0
M  V30 5 C 3.8127 0.8351 0.0 0
M  V30 6 C 2.5054 -1.4282 0.0 0
M  V30 7 C -0.1089 3.1227 0.0 0
M  V30 8 C 3.7764 2.3844 0.0 0
M  V30 9 C 5.0836 0.0968 0.0 0
M  V30 10 C 1.1619 -2.1544 0.0 0
M  V30 11 C 3.7764 -2.1544 0.0 0
M  V30 12 C 5.0473 3.1712 0.0 0
M  V30 13 C 6.3545 0.8835 0.0 0
M  V30 14 C 1.1256 -3.6311 0.0 0
M  V30 15 C 3.74 -3.6311 0.0 0
M  V30 16 C 6.3182 2.4328 0.0 0
M  V30 17 N 2.3965 -4.3573 0.0 0
M  V30 18 C 2.3602 -5.834 0.0 0
M  V30 19 C 1.0167 -6.5602 0.0 0 CFG=1
M  V30 20 C 0.9804 -8.0369 0.0 0
M  V30 21 C -0.3268 -5.7856 0.0 0
M  V30 22 C 2.2513 -8.7752 0.0 0
M  V30 23 C -0.3631 -8.7752 0.0 0
M  V30 24 C 2.215 -10.2519 0.0 0
M  V30 25 C -0.3994 -10.2519 0.0 0
M  V30 26 C 0.8714 -10.9902 0.0 0
M  V30 END ATOM
M  V30 BEGIN BOND
M  V30 1 2 1 2
M  V30 2 1 2 3
M  V30 3 1 2 4
M  V30 4 1 3 5
M  V30 5 1 3 6
M  V30 6 1 4 7
M  V30 7 2 5 8
M  V30 8 1 5 9
M  V30 9 1 6 10
M  V30 10 1 6 11
M  V30 11 1 8 12
M  V30 12 2 9 13
M  V30 13 1 10 14
M  V30 14 1 11 15
M  V30 15 2 12 16
M  V30 16 1 14 17
M  V30 17 1 17 18
M  V30 18 1 18 19
M  V30 19 1 19 20
M  V30 20 1 19 21 CFG=1
M  V30 21 2 20 22
M  V30 22 1 20 23
M  V30 23 1 22 24
M  V30 24 2 23 25
M  V30 25 2 24 26
M  V30 26 1 13 16
M  V30 27 1 15 17
M  V30 28 1 25 26
M  V30 END BOND
M  V30 BEGIN COLLECTION
M  V30 MDLV30/STERAC1 ATOMS=(1 19)
M  V30 END COLLECTION
M  V30 END CTAB
M  END
>  <SMILES>
CCC(=O)N(C1CCN(CC(C)C2=CC=CC=C2)CC1)C1=CC=CC=C1

>  <INCHI_IDENTIFIER>
InChI=1S/C23H30N2O/c1-3-23(26)25(21-12-8-5-9-13-21)22-14-16-24(17-15-22)18-19(2)20-10-6-4-7-11-20/h4-13,19,22H,3,14-18H2,1-2H3

>  <INCHI_KEY>
UXIGUKSHASXDNI-UHFFFAOYSA-N

>  <FORMULA>
C23H30N2O

>  <MOLECULAR_WEIGHT>
350.506

>  <DRUGBANK_ID>
DB09171

>  <DRUG_GROUPS>
illicit

>  <GENERIC_NAME>
β-Methylfentanyl

>  <SYNONYMS>
beta-Methylfentanyl; Betamethylfentanyl

$$$$
Compound 116
Actelion Java MolfileCreator 2.0

  0  0  0  0  0  0              0 V3000
M  V30 BEGIN CTAB
M  V30 COUNTS 30 32 0 0 0
M  V30 BEGIN ATOM
M  V30 1 F 0.0 0.0 0.0 0
M  V30 2 C -0.0359 1.5349 0.0 0
M  V30 3 C -1.367 2.3144 0.0 0
M  V30 4 C 1.2231 2.3144 0.0 0
M  V30 5 N -2.6981 1.5829 0.0 0
M  V30 6 C -1.403 3.8493 0.0 0
M  V30 7 C 1.1871 3.8493 0.0 0
M  V30 8 C -4.0292 2.3623 0.0 0
M  V30 9 C -2.7341 0.1199 0.0 0 CFG=2
M  V30 10 C -0.1439 4.6288 0.0 0
M  V30 11 O -5.3603 1.6308 0.0 0
M  V30 12 C -4.0652 3.8973 0.0 0
M  V30 13 C -4.0652 -0.5995 0.0 0 CFG=1
M  V30 14 C -1.4749 -0.5995 0.0 0
M  V30 15 O -5.3963 4.6768 0.0 0
M  V30 16 C -4.1012 -2.0626 0.0 0
M  V30 17 C -5.3963 0.1678 0.0 0
M  V30 18 C -1.5109 -2.0626 0.0 0
M  V30 19 C -5.4323 6.2117 0.0 0
M  V30 20 N -2.842 -2.7821 0.0 0
M  V30 21 C -2.878 -4.2451 0.0 0
M  V30 22 C -4.2091 -4.9646 0.0 0
M  V30 23 N -4.2451 -6.4276 0.0 0
M  V30 24 N -3.0699 -7.267 0.0 0
M  V30 25 C -5.4922 -7.267 0.0 0
M  V30 26 N -3.5735 -8.6581 0.0 0
M  V30 27 O -6.9552 -6.7634 0.0 0
M  V30 28 N -5.0605 -8.6581 0.0 0
M  V30 29 C -5.9719 -9.8333 0.0 0
M  V30 30 C -5.3843 -11.1644 0.0 0
M  V30 END ATOM
M  V30 BEGIN BOND
M  V30 1 1 1 2
M  V30 2 2 2 3
M  V30 3 1 2 4
M  V30 4 1 3 5
M  V30 5 1 3 6
M  V30 6 2 4 7
M  V30 7 1 5 8
M  V30 8 1 9 5 CFG=1
M  V30 9 2 6 10
M  V30 10 2 8 11
M  V30 11 1 8 12
M  V30 12 1 9 13
M  V30 13 1 9 14
M  V30 14 1 12 15
M  V30 15 1 13 16
M  V30 16 1 13 17 CFG=1
M  V30 17 1 14 18
M  V30 18 1 15 19
M  V30 19 1 16 20
M  V30 20 1 20 21
M  V30 21 1 21 22
M  V30 22 1 22 23
M  V30 23 1 23 24
M  V30 24 1 23 25
M  V30 25 2 24 26
M  V30 26 2 25 27
M  V30 27 1 25 28
M  V30 28 1 28 29
M  V30 29 1 29 30
M  V30 30 1 7 10
M  V30 31 1 18 20
M  V30 32 1 26 28
M  V30 END BOND
M  V30 BEGIN COLLECTION
M  V30 MDLV30/STERAC1 ATOMS=(2 9 13)
M  V30 END COLLECTION
M  V30 END CTAB
M  END
>  <SMILES>
CCN1N=NN(CCN2CC[C@@H]([C@H](C)C2)N(C(=O)COC)C2=CC=CC=C2F)C1=O

>  <INCHI_IDENTIFIER>
InChI=1S/C20H29FN6O3/c1-4-25-20(29)26(23-22-25)12-11-24-10-9-17(15(2)13-24)27(19(28)14-30-3)18-8-6-5-7-16(18)21/h5-8,15,17H,4,9-14H2,1-3H3/t15-,17+/m1/s1

>  <INCHI_KEY>
KKMGCTVJCQYQPV-WBVHZDCISA-N

>  <FORMULA>
C20H29FN6O3

>  <MOLECULAR_WEIGHT>
420.489

>  <DRUGBANK_ID>
DB09172

>  <DRUG_GROUPS>
illicit

>  <GENERIC_NAME>
Brifentanil

>  <SYNONYMS>


$$$$
Compound 117
Actelion Java MolfileCreator 2.0

  0  0  0  0  0  0              0 V3000
M  V30 BEGIN CTAB
M  V30 COUNTS 26 28 0 0 0
M  V30 BEGIN ATOM
M  V30 1 O 0.0 0.0 0.0 0
M  V30 2 C 1.2724 0.7755 0.0 0
M  V30 3 N 2.5448 0.0484 0.0 0
M  V30 4 C 1.236 2.3267 0.0 0
M  V30 5 C 3.8172 0.824 0.0 0
M  V30 6 C 2.5084 -1.4299 0.0 0
M  V30 7 C -0.109 3.1143 0.0 0
M  V30 8 C 3.7808 2.3751 0.0 0
M  V30 9 C 5.0896 0.0969 0.0 0
M  V30 10 C 3.7808 -2.157 0.0 0
M  V30 11 C 1.1633 -2.157 0.0 0
M  V30 12 C -0.1454 4.6655 0.0 0
M  V30 13 C 5.0533 3.1628 0.0 0
M  V30 14 C 6.362 0.8725 0.0 0
M  V30 15 C 3.7445 -3.6354 0.0 0
M  V30 16 C 1.1269 -3.6354 0.0 0
M  V30 17 C 6.3257 2.4357 0.0 0
M  V30 18 N 2.3994 -4.3625 0.0 0
M  V30 19 C 2.363 -5.8409 0.0 0
M  V30 20 C 1.0179 -6.568 0.0 0
M  V30 21 C 0.9815 -8.0465 0.0 0
M  V30 22 C 2.2539 -8.7735 0.0 0
M  V30 23 C -0.3635 -8.7735 0.0 0
M  V30 24 C 2.2176 -10.252 0.0 0
M  V30 25 C -0.3999 -10.252 0.0 0
M  V30 26 C 0.8725 -10.9791 0.0 0
M  V30 END ATOM
M  V30 BEGIN BOND
M  V30 1 2 1 2
M  V30 2 1 2 3
M  V30 3 1 2 4
M  V30 4 1 3 5
M  V30 5 1 3 6
M  V30 6 1 4 7
M  V30 7 2 5 8
M  V30 8 1 5 9
M  V30 9 1 6 10
M  V30 10 1 6 11
M  V30 11 1 7 12
M  V30 12 1 8 13
M  V30 13 2 9 14
M  V30 14 1 10 15
M  V30 15 1 11 16
M  V30 16 2 13 17
M  V30 17 1 15 18
M  V30 18 1 18 19
M  V30 19 1 19 20
M  V30 20 1 20 21
M  V30 21 2 21 22
M  V30 22 1 21 23
M  V30 23 1 22 24
M  V30 24 2 23 25
M  V30 25 2 24 26
M  V30 26 1 14 17
M  V30 27 1 16 18
M  V30 28 1 25 26
M  V30 END BOND
M  V30 END CTAB
M  END
>  <SMILES>
CCCC(=O)N(C1CCN(CCC2=CC=CC=C2)CC1)C1=CC=CC=C1

>  <INCHI_IDENTIFIER>
InChI=1S/C23H30N2O/c1-2-9-23(26)25(21-12-7-4-8-13-21)22-15-18-24(19-16-22)17-14-20-10-5-3-6-11-20/h3-8,10-13,22H,2,9,14-19H2,1H3

>  <INCHI_KEY>
QQOMYEQLWQJRKK-UHFFFAOYSA-N

>  <FORMULA>
C23H30N2O

>  <MOLECULAR_WEIGHT>
350.506

>  <DRUGBANK_ID>
DB09173

>  <DRUG_GROUPS>
illicit

>  <GENERIC_NAME>
Butyrfentanyl

>  <SYNONYMS>
Butyr-fentanyl; Butyrylfentanyl

$$$$
Compound 118
Actelion Java MolfileCreator 2.0

  0  0  0  0  0  0              0 V3000
M  V30 BEGIN CTAB
M  V30 COUNTS 30 32 0 0 0
M  V30 BEGIN ATOM
M  V30 1 O 0.0 0.0 0.0 0
M  V30 2 C 0.2297 -1.4507 0.0 0
M  V30 3 O -1.3178 -1.4145 0.0 0
M  V30 4 C 0.9671 -2.7202 0.0 0 CFG=1
M  V30 5 C -2.1036 -0.0725 0.0 0
M  V30 6 N 1.7046 -1.3782 0.0 0
M  V30 7 C -0.3747 -3.4456 0.0 0 CFG=1
M  V30 8 C 2.2366 -3.4456 0.0 0
M  V30 9 C 3.1796 -1.3419 0.0 0
M  V30 10 C 1.9343 0.145 0.0 0
M  V30 11 C -0.411 -4.9206 0.0 0
M  V30 12 C -1.7167 -2.6597 0.0 0
M  V30 13 C 2.2003 -4.9206 0.0 0
M  V30 14 C 3.9171 0.0 0.0 0
M  V30 15 C 3.9171 -2.6114 0.0 0
M  V30 16 O 0.7495 1.1485 0.0 0
M  V30 17 C 3.3126 0.7012 0.0 0
M  V30 18 N 0.8583 -5.646 0.0 0
M  V30 19 C 5.3921 0.0362 0.0 0
M  V30 20 C 5.3921 -2.5751 0.0 0
M  V30 21 C 3.5423 2.2245 0.0 0
M  V30 22 C 0.8221 -7.121 0.0 0
M  V30 23 C 6.1175 -1.2331 0.0 0
M  V30 24 C -0.5198 -7.8464 0.0 0
M  V30 25 C -0.5561 -9.3213 0.0 0
M  V30 26 C 0.7133 -10.0467 0.0 0
M  V30 27 C -1.8981 -10.0467 0.0 0
M  V30 28 C 0.677 -11.5217 0.0 0
M  V30 29 C -1.9343 -11.5217 0.0 0
M  V30 30 C -0.6649 -12.2592 0.0 0
M  V30 END ATOM
M  V30 BEGIN BOND
M  V30 1 2 1 2
M  V30 2 1 2 3
M  V30 3 1 2 4
M  V30 4 1 3 5
M  V30 5 1 4 6 CFG=1
M  V30 6 1 4 7
M  V30 7 1 4 8
M  V30 8 1 6 9
M  V30 9 1 6 10
M  V30 10 1 7 11
M  V30 11 1 7 12 CFG=1
M  V30 12 1 8 13
M  V30 13 2 9 14
M  V30 14 1 9 15
M  V30 15 2 10 16
M  V30 16 1 10 17
M  V30 17 1 11 18
M  V30 18 1 14 19
M  V30 19 2 15 20
M  V30 20 1 17 21
M  V30 21 1 18 22
M  V30 22 2 19 23
M  V30 23 1 22 24
M  V30 24 1 24 25
M  V30 25 2 25 26
M  V30 26 1 25 27
M  V30 27 1 26 28
M  V30 28 2 27 29
M  V30 29 2 28 30
M  V30 30 1 13 18
M  V30 31 1 20 23
M  V30 32 1 29 30
M  V30 END BOND
M  V30 BEGIN COLLECTION
M  V30 MDLV30/STERAC1 ATOMS=(2 4 7)
M  V30 END COLLECTION
M  V30 END CTAB
M  END
>  <SMILES>
CCC(=O)N(C1=CC=CC=C1)[C@]1(CCN(CCC2=CC=CC=C2)C[C@H]1C)C(=O)OC

>  <INCHI_IDENTIFIER>
InChI=1S/C25H32N2O3/c1-4-23(28)27(22-13-9-6-10-14-22)25(24(29)30-3)16-18-26(19-20(25)2)17-15-21-11-7-5-8-12-21/h5-14,20H,4,15-19H2,1-3H3/t20-,25+/m1/s1

>  <INCHI_KEY>
IMYHGORQCPYVBZ-NLFFAJNJSA-N

>  <FORMULA>
C25H32N2O3

>  <MOLECULAR_WEIGHT>
408.542

>  <DRUGBANK_ID>
DB09174

>  <DRUG_GROUPS>
illicit

>  <GENERIC_NAME>
Lofentanil

>  <SYNONYMS>


$$$$
Compound 119
Actelion Java MolfileCreator 2.0

  0  0  0  0  0  0              0 V3000
M  V30 BEGIN CTAB
M  V30 COUNTS 26 28 0 0 0
M  V30 BEGIN ATOM
M  V30 1 F 0.0 0.0 0.0 0
M  V30 2 C 1.2831 -0.7332 0.0 0
M  V30 3 C 1.2464 -2.2241 0.0 0
M  V30 4 C 2.5663 0.0611 0.0 0
M  V30 5 C 2.5296 -2.9573 0.0 0
M  V30 6 C 3.8494 -0.6721 0.0 0
M  V30 7 C 3.8128 -2.163 0.0 0
M  V30 8 N 5.0959 -2.8962 0.0 0
M  V30 9 C 6.3791 -2.1019 0.0 0
M  V30 10 C 5.0593 -4.3871 0.0 0
M  V30 11 O 6.3424 -0.5377 0.0 0
M  V30 12 C 7.6622 -2.8351 0.0 0
M  V30 13 C 6.3424 -5.1326 0.0 0
M  V30 14 C 3.7028 -5.1326 0.0 0
M  V30 15 C 8.9454 -2.0408 0.0 0
M  V30 16 C 6.3057 -6.6235 0.0 0
M  V30 17 C 3.6661 -6.6235 0.0 0
M  V30 18 N 4.9493 -7.3567 0.0 0
M  V30 19 C 4.9126 -8.8476 0.0 0
M  V30 20 C 6.1958 -9.5931 0.0 0
M  V30 21 C 6.1591 -11.084 0.0 0
M  V30 22 C 7.4423 -11.8294 0.0 0
M  V30 23 C 4.8026 -11.8294 0.0 0
M  V30 24 C 7.4056 -13.3203 0.0 0
M  V30 25 C 4.766 -13.3203 0.0 0
M  V30 26 C 6.0491 -14.0536 0.0 0
M  V30 END ATOM
M  V30 BEGIN BOND
M  V30 1 1 1 2
M  V30 2 2 2 3
M  V30 3 1 2 4
M  V30 4 1 3 5
M  V30 5 2 4 6
M  V30 6 2 5 7
M  V30 7 1 7 8
M  V30 8 1 8 9
M  V30 9 1 8 10
M  V30 10 2 9 11
M  V30 11 1 9 12
M  V30 12 1 10 13
M  V30 13 1 10 14
M  V30 14 1 12 15
M  V30 15 1 13 16
M  V30 16 1 14 17
M  V30 17 1 16 18
M  V30 18 1 18 19
M  V30 19 1 19 20
M  V30 20 1 20 21
M  V30 21 2 21 22
M  V30 22 1 21 23
M  V30 23 1 22 24
M  V30 24 2 23 25
M  V30 25 2 24 26
M  V30 26 1 6 7
M  V30 27 1 17 18
M  V30 28 1 25 26
M  V30 END BOND
M  V30 END CTAB
M  END
>  <SMILES>
CCC(=O)N(C1CCN(CCC2=CC=CC=C2)CC1)C1=CC=C(F)C=C1

>  <INCHI_IDENTIFIER>
InChI=1S/C22H27FN2O/c1-2-22(26)25(20-10-8-19(23)9-11-20)21-13-16-24(17-14-21)15-12-18-6-4-3-5-7-18/h3-11,21H,2,12-17H2,1H3

>  <INCHI_KEY>
KXUBAVLIJFTASZ-UHFFFAOYSA-N

>  <FORMULA>
C22H27FN2O

>  <MOLECULAR_WEIGHT>
354.469

>  <DRUGBANK_ID>
DB09177

>  <DRUG_GROUPS>
illicit

>  <GENERIC_NAME>
p-Fluorofentanyl

>  <SYNONYMS>
4-Fluorofentanyl; Parafluorofentanyl

$$$$
Compound 120
Actelion Java MolfileCreator 2.0

  0  0  0  0  0  0              0 V3000
M  V30 BEGIN CTAB
M  V30 COUNTS 27 29 0 0 0
M  V30 BEGIN ATOM
M  V30 1 O 0.0 0.0 0.0 0
M  V30 2 C -1.335 0.7817 0.0 0
M  V30 3 N -2.67 0.0481 0.0 0
M  V30 4 C -1.371 2.3212 0.0 0
M  V30 5 C -4.005 0.8298 0.0 0
M  V30 6 C -2.706 -1.4191 0.0 0
M  V30 7 C -0.1082 3.1029 0.0 0
M  V30 8 C -5.34 0.0962 0.0 0
M  V30 9 C -4.0411 2.3693 0.0 0
M  V30 10 C -1.4432 -2.1408 0.0 0
M  V30 11 C -4.0411 -2.1408 0.0 0
M  V30 12 C -6.675 0.8779 0.0 0
M  V30 13 C -5.3761 3.151 0.0 0
M  V30 14 C -1.4793 -3.6081 0.0 0
M  V30 15 C -0.1804 -1.371 0.0 0
M  V30 16 C -4.0771 -3.6081 0.0 0
M  V30 17 C -6.7111 2.4174 0.0 0
M  V30 18 N -2.8143 -4.3297 0.0 0
M  V30 19 C -5.4121 -4.3297 0.0 0
M  V30 20 C -2.8504 -5.797 0.0 0
M  V30 21 C -1.5875 -6.5186 0.0 0
M  V30 22 C -1.6236 -7.9859 0.0 0
M  V30 23 C -0.3608 -8.7196 0.0 0
M  V30 24 C -2.9586 -8.7196 0.0 0
M  V30 25 C -0.3968 -10.1869 0.0 0
M  V30 26 C -2.9947 -10.1869 0.0 0
M  V30 27 C -1.7319 -10.9205 0.0 0
M  V30 END ATOM
M  V30 BEGIN BOND
M  V30 1 2 1 2
M  V30 2 1 2 3
M  V30 3 1 2 4
M  V30 4 1 3 5
M  V30 5 1 3 6
M  V30 6 1 4 7
M  V30 7 2 5 8
M  V30 8 1 5 9
M  V30 9 1 6 10
M  V30 10 1 6 11
M  V30 11 1 8 12
M  V30 12 2 9 13
M  V30 13 1 10 14
M  V30 14 1 10 15
M  V30 15 1 11 16
M  V30 16 2 12 17
M  V30 17 1 14 18
M  V30 18 1 16 19
M  V30 19 1 18 20
M  V30 20 1 20 21
M  V30 21 1 21 22
M  V30 22 2 22 23
M  V30 23 1 22 24
M  V30 24 1 23 25
M  V30 25 2 24 26
M  V30 26 2 25 27
M  V30 27 1 13 17
M  V30 28 1 16 18
M  V30 29 1 26 27
M  V30 END BOND
M  V30 END CTAB
M  END
>  <SMILES>
CCC(=O)N(C1CC(C)N(CCC2=CC=CC=C2)CC1C)C1=CC=CC=C1

>  <INCHI_IDENTIFIER>
InChI=1S/C24H32N2O/c1-4-24(27)26(22-13-9-6-10-14-22)23-17-20(3)25(18-19(23)2)16-15-21-11-7-5-8-12-21/h5-14,19-20,23H,4,15-18H2,1-3H3

>  <INCHI_KEY>
ODPKHHGQKIYCTJ-UHFFFAOYSA-N

>  <FORMULA>
C24H32N2O

>  <MOLECULAR_WEIGHT>
364.533

>  <DRUGBANK_ID>
DB09178

>  <DRUG_GROUPS>
illicit

>  <GENERIC_NAME>
Phenaridine

>  <SYNONYMS>
2,5-Dimethylfentanyl

$$$$
Compound 121
Actelion Java MolfileCreator 2.0

  0  0  0  0  0  0              0 V3000
M  V30 BEGIN CTAB
M  V30 COUNTS 24 26 0 0 0
M  V30 BEGIN ATOM
M  V30 1 S 0.0 0.0 0.0 0
M  V30 2 C -1.2312 0.8997 0.0 0
M  V30 3 C -0.4972 -1.3732 0.0 0
M  V30 4 C -2.4624 0.071 0.0 0
M  V30 5 C -1.2667 2.415 0.0 0
M  V30 6 C -2.0125 -1.3377 0.0 0
M  V30 7 C -2.5808 3.1845 0.0 0
M  V30 8 N -2.6163 4.6999 0.0 0
M  V30 9 C -1.3732 5.4694 0.0 0
M  V30 10 C -3.9304 5.4694 0.0 0
M  V30 11 C -1.4087 6.9847 0.0 0
M  V30 12 C -3.9659 6.9847 0.0 0
M  V30 13 C -2.7228 7.7542 0.0 0
M  V30 14 N -2.7583 9.2696 0.0 0
M  V30 15 C -4.0487 10.0746 0.0 0
M  V30 16 C -1.4443 10.0272 0.0 0
M  V30 17 C -5.3865 9.3998 0.0 0
M  V30 18 C -4.0369 11.5899 0.0 0
M  V30 19 O -1.4798 11.5189 0.0 0
M  V30 20 C -0.2722 9.2696 0.0 0
M  V30 21 C -6.6769 10.2048 0.0 0
M  V30 22 C -5.3273 12.3949 0.0 0
M  V30 23 C 0.9944 10.0154 0.0 0
M  V30 24 C -6.6651 11.7201 0.0 0
M  V30 END ATOM
M  V30 BEGIN BOND
M  V30 1 1 1 2
M  V30 2 1 1 3
M  V30 3 2 2 4
M  V30 4 1 2 5
M  V30 5 2 3 6
M  V30 6 1 5 7
M  V30 7 1 7 8
M  V30 8 1 8 9
M  V30 9 1 8 10
M  V30 10 1 9 11
M  V30 11 1 10 12
M  V30 12 1 11 13
M  V30 13 1 13 14
M  V30 14 1 14 15
M  V30 15 1 14 16
M  V30 16 2 15 17
M  V30 17 1 15 18
M  V30 18 2 16 19
M  V30 19 1 16 20
M  V30 20 1 17 21
M  V30 21 2 18 22
M  V30 22 1 20 23
M  V30 23 2 21 24
M  V30 24 1 4 6
M  V30 25 1 12 13
M  V30 26 1 22 24
M  V30 END BOND
M  V30 END CTAB
M  END
>  <SMILES>
CCC(=O)N(C1CCN(CCC2=CC=CS2)CC1)C1=CC=CC=C1

>  <INCHI_IDENTIFIER>
InChI=1S/C20H26N2OS/c1-2-20(23)22(17-7-4-3-5-8-17)18-10-13-21(14-11-18)15-12-19-9-6-16-24-19/h3-9,16,18H,2,10-15H2,1H3

>  <INCHI_KEY>
YMRFZDHYDKZXPA-UHFFFAOYSA-N

>  <FORMULA>
C20H26N2OS

>  <MOLECULAR_WEIGHT>
342.5

>  <DRUGBANK_ID>
DB09180

>  <DRUG_GROUPS>
illicit

>  <GENERIC_NAME>
Thienylfentanyl

>  <SYNONYMS>
Thiofentanyl

$$$$
Compound 122
Actelion Java MolfileCreator 2.0

  0  0  0  0  0  0              0 V3000
M  V30 BEGIN CTAB
M  V30 COUNTS 24 26 0 0 0
M  V30 BEGIN ATOM
M  V30 1 O 0.0 0.0 0.0 0
M  V30 2 C -0.0362 -1.4733 0.0 0
M  V30 3 N 1.2318 -2.21 0.0 0
M  V30 4 C -1.3767 -2.21 0.0 0
M  V30 5 C 2.4998 -1.4129 0.0 0
M  V30 6 C 1.1956 -3.6834 0.0 0
M  V30 7 C -1.4129 -3.6834 0.0 0
M  V30 8 C 2.4636 0.1328 0.0 0
M  V30 9 C 3.7679 -2.1496 0.0 0
M  V30 10 C 2.4636 -4.408 0.0 0
M  V30 11 C -0.1449 -4.408 0.0 0
M  V30 12 C 3.7317 0.9299 0.0 0
M  V30 13 C 5.036 -1.3526 0.0 0
M  V30 14 C 2.4274 -5.8813 0.0 0
M  V30 15 C -0.1811 -5.8813 0.0 0
M  V30 16 C 4.9997 0.2053 0.0 0
M  V30 17 N 1.0869 -6.618 0.0 0
M  V30 18 C 1.0506 -8.0914 0.0 0
M  V30 19 C -0.2898 -8.8281 0.0 0
M  V30 20 C -0.326 -10.3015 0.0 0
M  V30 21 C -1.6303 -8.031 0.0 0
M  V30 22 C -1.6665 -11.0381 0.0 0
M  V30 23 C -2.9708 -8.7677 0.0 0
M  V30 24 C -3.0071 -10.2411 0.0 0
M  V30 END ATOM
M  V30 BEGIN BOND
M  V30 1 2 1 2
M  V30 2 1 2 3
M  V30 3 1 2 4
M  V30 4 1 3 5
M  V30 5 1 3 6
M  V30 6 1 4 7
M  V30 7 2 5 8
M  V30 8 1 5 9
M  V30 9 1 6 10
M  V30 10 1 6 11
M  V30 11 1 8 12
M  V30 12 2 9 13
M  V30 13 1 10 14
M  V30 14 1 11 15
M  V30 15 2 12 16
M  V30 16 1 14 17
M  V30 17 1 17 18
M  V30 18 1 18 19
M  V30 19 2 19 20
M  V30 20 1 19 21
M  V30 21 1 20 22
M  V30 22 2 21 23
M  V30 23 2 22 24
M  V30 24 1 13 16
M  V30 25 1 15 17
M  V30 26 1 23 24
M  V30 END BOND
M  V30 END CTAB
M  END
>  <SMILES>
CCC(=O)N(C1CCN(CC2=CC=CC=C2)CC1)C1=CC=CC=C1

>  <INCHI_IDENTIFIER>
InChI=1S/C21H26N2O/c1-2-21(24)23(19-11-7-4-8-12-19)20-13-15-22(16-14-20)17-18-9-5-3-6-10-18/h3-12,20H,2,13-17H2,1H3

>  <INCHI_KEY>
POQDXIFVWVZVML-UHFFFAOYSA-N

>  <FORMULA>
C21H26N2O

>  <MOLECULAR_WEIGHT>
322.452

>  <DRUGBANK_ID>
DB09182

>  <DRUG_GROUPS>
illicit

>  <GENERIC_NAME>
Benzylfentanyl

>  <SYNONYMS>


$$$$
Compound 123
Actelion Java MolfileCreator 2.0

  0  0  0  0  0  0              0 V3000
M  V30 BEGIN CTAB
M  V30 COUNTS 19 20 0 0 0
M  V30 BEGIN ATOM
M  V30 1 O 0.0 0.0 0.0 0
M  V30 2 C 0.7155 -1.2855 0.0 0
M  V30 3 O 2.1829 -1.2491 0.0 0
M  V30 4 C -0.0727 -2.5467 0.0 0
M  V30 5 C 2.8984 0.0848 0.0 0 CFG=2
M  V30 6 C -1.6129 -2.5104 0.0 0
M  V30 7 C 3.6382 -1.1763 0.0 0
M  V30 8 C 4.184 0.8731 0.0 0 CFG=1
M  V30 9 C 1.5644 0.8731 0.0 0
M  V30 10 C 2.8378 -2.4497 0.0 0
M  V30 11 C 5.1057 -1.1399 0.0 0
M  V30 12 C 4.1476 2.4133 0.0 0
M  V30 13 C 5.4331 0.1334 0.0 0
M  V30 14 C 1.528 2.4133 0.0 0
M  V30 15 C 3.5776 -3.711 0.0 0
M  V30 16 C 5.8333 -2.4133 0.0 0
M  V30 17 N 2.8136 3.2016 0.0 0
M  V30 18 C 5.045 -3.6746 0.0 0
M  V30 19 C 2.7772 4.754 0.0 0
M  V30 END ATOM
M  V30 BEGIN BOND
M  V30 1 2 1 2
M  V30 2 1 2 3
M  V30 3 1 2 4
M  V30 4 1 5 3 CFG=1
M  V30 5 1 4 6
M  V30 6 1 5 7
M  V30 7 1 5 8
M  V30 8 1 5 9
M  V30 9 2 7 10
M  V30 10 1 7 11
M  V30 11 1 8 12
M  V30 12 1 8 13 CFG=1
M  V30 13 1 9 14
M  V30 14 1 10 15
M  V30 15 2 11 16
M  V30 16 1 12 17
M  V30 17 2 15 18
M  V30 18 1 17 19
M  V30 19 1 14 17
M  V30 20 1 16 18
M  V30 END BOND
M  V30 BEGIN COLLECTION
M  V30 MDLV30/STERAC1 ATOMS=(2 5 8)
M  V30 END COLLECTION
M  V30 END CTAB
M  END
>  <SMILES>
CCC(=O)O[C@]1(CCN(C)C[C@H]1C)C1=CC=CC=C1

>  <INCHI_IDENTIFIER>
InChI=1S/C16H23NO2/c1-4-15(18)19-16(14-8-6-5-7-9-14)10-11-17(3)12-13(16)2/h5-9,13H,4,10-12H2,1-3H3/t13-,16+/m1/s1

>  <INCHI_KEY>
UVAZQQHAVMNMHE-CJNGLKHVSA-N

>  <FORMULA>
C16H23NO2

>  <MOLECULAR_WEIGHT>
261.365

>  <DRUGBANK_ID>
DB13160

>  <DRUG_GROUPS>
illicit

>  <GENERIC_NAME>
Alphaprodine

>  <SYNONYMS>
dl-alpha-prodine

$$$$
Compound 124
Actelion Java MolfileCreator 2.0

  0  0  0  0  0  0              0 V3000
M  V30 BEGIN CTAB
M  V30 COUNTS 16 17 0 0 0
M  V30 BEGIN ATOM
M  V30 1 O 0.0 0.0 0.0 0
M  V30 2 C 1.28 -0.7111 0.0 0
M  V30 3 C -1.3511 -0.7111 0.0 0
M  V30 4 C 2.5482 0.0592 0.0 0
M  V30 5 C 1.2445 -2.1927 0.0 0
M  V30 6 C 3.8283 -0.64 0.0 0
M  V30 7 C 2.5245 -2.9038 0.0 0
M  V30 8 C 3.7928 -2.1334 0.0 0
M  V30 9 C 5.2506 -0.1422 0.0 0
M  V30 10 N 5.2151 -2.5601 0.0 0
M  V30 11 C 6.1277 -1.3511 0.0 0
M  V30 12 C 5.6773 1.3393 0.0 0
M  V30 13 C 7.1233 1.683 0.0 0
M  V30 14 N 7.55 3.1646 0.0 0
M  V30 15 C 8.996 3.5083 0.0 0
M  V30 16 C 6.4833 4.338 0.0 0
M  V30 END ATOM
M  V30 BEGIN BOND
M  V30 1 1 1 2
M  V30 2 1 1 3
M  V30 3 2 2 4
M  V30 4 1 2 5
M  V30 5 1 4 6
M  V30 6 2 5 7
M  V30 7 2 6 8
M  V30 8 1 6 9
M  V30 9 1 8 10
M  V30 10 2 9 11
M  V30 11 1 9 12
M  V30 12 1 12 13
M  V30 13 1 13 14
M  V30 14 1 14 15
M  V30 15 1 14 16
M  V30 16 1 7 8
M  V30 17 1 10 11
M  V30 END BOND
M  V30 END CTAB
M  END
>  <SMILES>
COC1=CC=C2NC=C(CCN(C)C)C2=C1

>  <INCHI_IDENTIFIER>
InChI=1S/C13H18N2O/c1-15(2)7-6-10-9-14-13-5-4-11(16-3)8-12(10)13/h4-5,8-9,14H,6-7H2,1-3H3

>  <INCHI_KEY>
ZSTKHSQDNIGFLM-UHFFFAOYSA-N

>  <FORMULA>
C13H18N2O

>  <MOLECULAR_WEIGHT>
218.2948

>  <DRUGBANK_ID>
DB14010

>  <DRUG_GROUPS>
experimental; illicit

>  <GENERIC_NAME>
5-methoxy-N,N-dimethyltryptamine

>  <SYNONYMS>
3-(2-dimethylaminoethyl)-5-methoxyindole; 3-[2-(N,N-Dimethylamino)ethyl]-5-methoxy-indole; 5-MeO-DMT; 5-methoxy-N,N-dimethyl-1H-indole-3-ethanamine; MeODMT; Methoxybufotenin; N,N-dimethyl-5-methoxytryptamine; O-methylbufotenine

$$$$
