Compound 1
Actelion Java MolfileCreator 2.0

  0  0  0  0  0  0              0 V3000
M  V30 BEGIN CTAB
M  V30 COUNTS 16 17 0 0 0
M  V30 BEGIN ATOM
M  V30 1 S 0.0 0.0 0.0 0
M  V30 2 O -0.0237 1.5171 0.0 0
M  V30 3 O -0.0237 -1.4697 0.0 0
M  V30 4 N 1.4697 0.0237 0.0 0
M  V30 5 C -1.5171 0.0237 0.0 0
M  V30 6 S -2.406 1.2445 0.0 0
M  V30 7 N -2.406 -1.1496 0.0 0
M  V30 8 C -3.8401 0.8059 0.0 0
M  V30 9 C -3.8401 -0.6637 0.0 0
M  V30 10 C -5.1558 1.5763 0.0 0
M  V30 11 C -5.1558 -1.3867 0.0 0
M  V30 12 C -6.4714 0.8533 0.0 0
M  V30 13 C -6.4714 -0.6163 0.0 0
M  V30 14 O -7.787 1.6119 0.0 0
M  V30 15 C -9.1026 0.8889 0.0 0
M  V30 16 C -10.4182 1.6474 0.0 0
M  V30 END ATOM
M  V30 BEGIN BOND
M  V30 1 2 1 2
M  V30 2 2 1 3
M  V30 3 1 1 4
M  V30 4 1 1 5
M  V30 5 1 5 6
M  V30 6 2 5 7
M  V30 7 1 6 8
M  V30 8 1 7 9
M  V30 9 1 8 10
M  V30 10 1 9 11
M  V30 11 2 10 12
M  V30 12 2 11 13
M  V30 13 1 12 14
M  V30 14 1 14 15
M  V30 15 1 15 16
M  V30 16 2 8 9
M  V30 17 1 12 13
M  V30 END BOND
M  V30 END CTAB
M  END
>  <SMILES>
CCOC1=CC2=C(C=C1)N=C(S2)S(N)(=O)=O

>  <INCHI_IDENTIFIER>
InChI=1S/C9H10N2O3S2/c1-2-14-6-3-4-7-8(5-6)15-9(11-7)16(10,12)13/h3-5H,2H2,1H3,(H2,10,12,13)

>  <INCHI_KEY>
OUZWUKMCLIBBOG-UHFFFAOYSA-N

>  <FORMULA>
C9H10N2O3S2

>  <MOLECULAR_WEIGHT>
258.317

>  <DRUGBANK_ID>
DB00311

>  <DRUG_GROUPS>
withdrawn

>  <GENERIC_NAME>
Ethoxzolamide

>  <SYNONYMS>
6-Ethoxy-1,3-benzothiazole-2-sulfonamide; Ethoxazolamide; Ethoxyzolamide

$$$$
Compound 2
Actelion Java MolfileCreator 2.0

  0  0  0  0  0  0              0 V3000
M  V30 BEGIN CTAB
M  V30 COUNTS 14 14 0 0 0
M  V30 BEGIN ATOM
M  V30 1 O 0.0 0.0 0.0 0
M  V30 2 C -0.0235 1.5087 0.0 0
M  V30 3 N -1.3319 2.2749 0.0 0
M  V30 4 N 1.2376 2.2749 0.0 0
M  V30 5 C -1.3555 3.7837 0.0 0
M  V30 6 C -2.6403 1.5559 0.0 0
M  V30 7 C 1.214 3.7837 0.0 0
M  V30 8 O -2.6639 4.5381 0.0 0
M  V30 9 C -0.0942 4.5381 0.0 0
M  V30 10 O 2.4753 4.5381 0.0 0
M  V30 11 C 0.6247 5.8464 0.0 0
M  V30 12 C -0.8604 5.8464 0.0 0
M  V30 13 C -0.1296 7.1548 0.0 0
M  V30 14 C -2.3692 5.87 0.0 0
M  V30 END ATOM
M  V30 BEGIN BOND
M  V30 1 2 1 2
M  V30 2 1 2 3
M  V30 3 1 2 4
M  V30 4 1 3 5
M  V30 5 1 3 6
M  V30 6 1 4 7
M  V30 7 2 5 8
M  V30 8 1 5 9
M  V30 9 2 7 10
M  V30 10 1 9 11
M  V30 11 1 9 12
M  V30 12 1 11 13
M  V30 13 1 12 14
M  V30 14 1 7 9
M  V30 END BOND
M  V30 END CTAB
M  END
>  <SMILES>
CCC1(CC)C(=O)NC(=O)N(C)C1=O

>  <INCHI_IDENTIFIER>
InChI=1S/C9H14N2O3/c1-4-9(5-2)6(12)10-8(14)11(3)7(9)13/h4-5H2,1-3H3,(H,10,12,14)

>  <INCHI_KEY>
FWJKNZONDWOGMI-UHFFFAOYSA-N

>  <FORMULA>
C9H14N2O3

>  <MOLECULAR_WEIGHT>
198.2191

>  <DRUGBANK_ID>
DB00463

>  <DRUG_GROUPS>
withdrawn

>  <GENERIC_NAME>
Metharbital

>  <SYNONYMS>
Metarbital; Metharbital; Metharbitalum

$$$$
Compound 3
Actelion Java MolfileCreator 2.0

  0  0  0  0  0  0              0 V3000
M  V30 BEGIN CTAB
M  V30 COUNTS 23 24 0 0 0
M  V30 BEGIN ATOM
M  V30 1 O 0.0 0.0 0.0 0
M  V30 2 C 1.4844 0.0239 0.0 0 CFG=2
M  V30 3 C 1.4605 -1.4605 0.0 0
M  V30 4 C 1.4605 1.5562 0.0 0
M  V30 5 C 2.9689 0.0478 0.0 0
M  V30 6 C 2.7414 -2.1907 0.0 0
M  V30 7 C 0.1316 -2.1907 0.0 0
M  V30 8 C 2.7414 2.3344 0.0 0
M  V30 9 C 0.1316 2.3344 0.0 0
M  V30 10 C 3.6991 -1.233 0.0 0
M  V30 11 C 2.7175 -3.6752 0.0 0
M  V30 12 C 0.1077 -3.6752 0.0 0
M  V30 13 C 2.7175 3.8667 0.0 0
M  V30 14 C 0.1077 3.8667 0.0 0
M  V30 15 N 5.1836 -1.2091 0.0 0 CHG=1
M  V30 16 C 1.3886 -4.4174 0.0 0
M  V30 17 C 1.3886 4.6448 0.0 0
M  V30 18 C 5.1596 0.3232 0.0 0
M  V30 19 C 5.1596 -2.6935 0.0 0
M  V30 20 C 6.668 -1.1851 0.0 0
M  V30 21 C 6.4406 1.1013 0.0 0
M  V30 22 C 6.4406 -3.4238 0.0 0
M  V30 23 C 7.3983 -2.4661 0.0 0
M  V30 END ATOM
M  V30 BEGIN BOND
M  V30 1 1 1 2
M  V30 2 1 2 3 CFG=1
M  V30 3 1 2 4
M  V30 4 1 2 5
M  V30 5 2 3 6
M  V30 6 1 3 7
M  V30 7 1 4 8
M  V30 8 1 4 9
M  V30 9 1 5 10
M  V30 10 1 6 11
M  V30 11 2 7 12
M  V30 12 1 8 13
M  V30 13 1 9 14
M  V30 14 1 10 15
M  V30 15 2 11 16
M  V30 16 1 13 17
M  V30 17 1 15 18
M  V30 18 1 15 19
M  V30 19 1 15 20
M  V30 20 1 18 21
M  V30 21 1 19 22
M  V30 22 1 20 23
M  V30 23 1 12 16
M  V30 24 1 14 17
M  V30 END BOND
M  V30 BEGIN COLLECTION
M  V30 MDLV30/STERAC1 ATOMS=(1 2)
M  V30 END COLLECTION
M  V30 END CTAB
M  END
>  <SMILES>
CC[N+](CC)(CC)CCC(O)(C1CCCCC1)C1=CC=CC=C1

>  <INCHI_IDENTIFIER>
InChI=1S/C21H36NO/c1-4-22(5-2,6-3)18-17-21(23,19-13-9-7-10-14-19)20-15-11-8-12-16-20/h7,9-10,13-14,20,23H,4-6,8,11-12,15-18H2,1-3H3/q+1

>  <INCHI_KEY>
NPRHVSBSZMAEIN-UHFFFAOYSA-N

>  <FORMULA>
C21H36NO

>  <MOLECULAR_WEIGHT>
318.5166

>  <DRUGBANK_ID>
DB00505

>  <DRUG_GROUPS>
withdrawn

>  <GENERIC_NAME>
Tridihexethyl

>  <SYNONYMS>


$$$$
Compound 4
Actelion Java MolfileCreator 2.0

  0  0  0  0  0  0              0 V3000
M  V30 BEGIN CTAB
M  V30 COUNTS 29 31 0 0 0
M  V30 BEGIN ATOM
M  V30 1 O 0.0 0.0 0.0 0
M  V30 2 C 1.2644 -0.7242 0.0 0
M  V30 3 N 1.2398 -2.185 0.0 0
M  V30 4 C 2.5165 0.0491 0.0 0
M  V30 5 C -0.0613 -2.9093 0.0 0
M  V30 6 C 2.5042 -2.9093 0.0 0
M  V30 7 C 2.4919 1.6204 0.0 0
M  V30 8 C 3.83 -0.6997 0.0 0
M  V30 9 C -0.0859 -4.3701 0.0 0
M  V30 10 C 2.4797 -4.3701 0.0 0
M  V30 11 O 1.1907 2.3937 0.0 0
M  V30 12 C 3.8054 2.406 0.0 0
M  V30 13 N 5.1312 0.1104 0.0 0
M  V30 14 C 1.1661 3.9036 0.0 0
M  V30 15 C 5.1067 1.6326 0.0 0
M  V30 16 C 6.3956 -0.6137 0.0 0
M  V30 17 O 2.4306 4.677 0.0 0
M  V30 18 C -0.135 4.677 0.0 0
M  V30 19 C 6.3711 2.406 0.0 0
M  V30 20 C 7.66 0.1595 0.0 0
M  V30 21 C 7.6355 1.6817 0.0 0
M  V30 22 C 6.322 3.9773 0.0 0
M  V30 23 C 8.9613 2.4674 0.0 0
M  V30 24 C 7.6232 4.7752 0.0 0
M  V30 25 C 8.949 4.0387 0.0 0
M  V30 26 O 7.5986 6.2851 0.0 0
M  V30 27 O 10.2134 4.812 0.0 0
M  V30 28 C 8.8508 7.0585 0.0 0
M  V30 29 C 11.4655 4.0878 0.0 0
M  V30 END ATOM
M  V30 BEGIN BOND
M  V30 1 2 1 2
M  V30 2 1 2 3
M  V30 3 1 2 4
M  V30 4 1 3 5
M  V30 5 1 3 6
M  V30 6 1 4 7
M  V30 7 1 4 8
M  V30 8 1 5 9
M  V30 9 1 6 10
M  V30 10 1 7 11
M  V30 11 1 7 12
M  V30 12 1 8 13
M  V30 13 1 11 14
M  V30 14 1 12 15
M  V30 15 1 13 16
M  V30 16 2 14 17
M  V30 17 1 14 18
M  V30 18 1 15 19
M  V30 19 1 16 20
M  V30 20 2 19 21
M  V30 21 1 19 22
M  V30 22 1 21 23
M  V30 23 2 22 24
M  V30 24 2 23 25
M  V30 25 1 24 26
M  V30 26 1 25 27
M  V30 27 1 26 28
M  V30 28 1 27 29
M  V30 29 1 13 15
M  V30 30 1 20 21
M  V30 31 1 24 25
M  V30 END BOND
M  V30 END CTAB
M  END
>  <SMILES>
CCN(CC)C(=O)C1CN2CCC3=CC(OC)=C(OC)C=C3C2CC1OC(C)=O

>  <INCHI_IDENTIFIER>
InChI=1S/C22H32N2O5/c1-6-23(7-2)22(26)17-13-24-9-8-15-10-20(27-4)21(28-5)11-16(15)18(24)12-19(17)29-14(3)25/h10-11,17-19H,6-9,12-13H2,1-5H3

>  <INCHI_KEY>
JSZILQVIPPROJI-UHFFFAOYSA-N

>  <FORMULA>
C22H32N2O5

>  <MOLECULAR_WEIGHT>
404.4999

>  <DRUGBANK_ID>
DB00767

>  <DRUG_GROUPS>
withdrawn

>  <GENERIC_NAME>
Benzquinamide

>  <SYNONYMS>
benzquinamida; BZQ

$$$$
Compound 5
Actelion Java MolfileCreator 2.0

  0  0  0  0  0  0              0 V3000
M  V30 BEGIN CTAB
M  V30 COUNTS 18 18 0 0 0
M  V30 BEGIN ATOM
M  V30 1 O 0.0 0.0 0.0 0
M  V30 2 C -0.0238 -1.4784 0.0 0
M  V30 3 C 1.2757 0.763 0.0 0
M  V30 4 C -1.3473 -2.2057 0.0 0
M  V30 5 C 1.2519 -2.2057 0.0 0
M  V30 6 C 1.2519 2.2892 0.0 0 CFG=1
M  V30 7 C -1.3711 -3.6842 0.0 0
M  V30 8 C -2.6707 -1.4427 0.0 0
M  V30 9 C 1.228 -3.6842 0.0 0
M  V30 10 O -0.0715 3.0523 0.0 0
M  V30 11 C 2.5277 3.0523 0.0 0
M  V30 12 C -0.0953 -4.4115 0.0 0
M  V30 13 C -3.9942 -2.17 0.0 0
M  V30 14 N 2.5038 4.5785 0.0 0
M  V30 15 C -5.3177 -1.395 0.0 0
M  V30 16 C 3.7796 5.3415 0.0 0
M  V30 17 C 5.0554 4.6142 0.0 0
M  V30 18 C 3.7558 6.8677 0.0 0
M  V30 END ATOM
M  V30 BEGIN BOND
M  V30 1 1 1 2
M  V30 2 1 1 3
M  V30 3 2 2 4
M  V30 4 1 2 5
M  V30 5 1 3 6
M  V30 6 1 4 7
M  V30 7 1 4 8
M  V30 8 2 5 9
M  V30 9 1 6 10 CFG=1
M  V30 10 1 6 11
M  V30 11 2 7 12
M  V30 12 1 8 13
M  V30 13 1 11 14
M  V30 14 2 13 15
M  V30 15 1 14 16
M  V30 16 1 16 17
M  V30 17 1 16 18
M  V30 18 1 9 12
M  V30 END BOND
M  V30 BEGIN COLLECTION
M  V30 MDLV30/STERAC1 ATOMS=(1 6)
M  V30 END COLLECTION
M  V30 END CTAB
M  END
>  <SMILES>
CC(C)NCC(O)COC1=CC=CC=C1CC=C

>  <INCHI_IDENTIFIER>
InChI=1S/C15H23NO2/c1-4-7-13-8-5-6-9-15(13)18-11-14(17)10-16-12(2)3/h4-6,8-9,12,14,16-17H,1,7,10-11H2,2-3H3

>  <INCHI_KEY>
PAZJSJFMUHDSTF-UHFFFAOYSA-N

>  <FORMULA>
C15H23NO2

>  <MOLECULAR_WEIGHT>
249.3486

>  <DRUGBANK_ID>
DB00866

>  <DRUG_GROUPS>
experimental; withdrawn

>  <GENERIC_NAME>
Alprenolol

>  <SYNONYMS>
(RS)-1-(2-allylphenoxy)-3-(isopropylamino)propan-2-ol; 1-(2-Allylphenoxy)-3-isopropylamino-2-propanol; 1-(o-Allylphenoxy)-3-(isopropylamino)-2-propanol; Alfeprol; Alprenolol; Alpr√©nolol; Alprenololum; Aprenololo

$$$$
Compound 6
Actelion Java MolfileCreator 2.0

  0  0  0  0  0  0              0 V3000
M  V30 BEGIN CTAB
M  V30 COUNTS 34 36 0 0 0
M  V30 BEGIN ATOM
M  V30 1 O 0.0 0.0 0.0 0
M  V30 2 C -0.0238 -1.4775 0.0 0
M  V30 3 O -1.3226 -2.2282 0.0 0
M  V30 4 C 1.263 -2.2043 0.0 0
M  V30 5 C -2.6929 -1.4536 0.0 0
M  V30 6 C 1.263 -3.6819 0.0 0
M  V30 7 C 2.526 -1.4179 0.0 0
M  V30 8 C -2.7048 0.0595 0.0 0
M  V30 9 C -3.9917 -2.2043 0.0 0
M  V30 10 C 2.5499 -4.373 0.0 0
M  V30 11 C 3.7891 -2.1328 0.0 0
M  V30 12 O -1.4417 0.846 0.0 0
M  V30 13 C -4.0512 0.8221 0.0 0
M  V30 14 C -5.3143 -1.4417 0.0 0
M  V30 15 C 3.8248 -3.5865 0.0 0
M  V30 16 C -1.4894 2.3711 0.0 0
M  V30 17 C -5.3619 0.0834 0.0 0
M  V30 18 C -6.6131 -2.1924 0.0 0 CFG=1
M  V30 19 C 5.0879 -4.3253 0.0 0
M  V30 20 O -2.8001 3.1337 0.0 0
M  V30 21 C -0.2263 3.1814 0.0 0
M  V30 22 O -6.6369 -3.6699 0.0 0
M  V30 23 C -7.9476 -1.4536 0.0 0
M  V30 24 C -0.2621 4.6828 0.0 0
M  V30 25 C 1.0843 2.4665 0.0 0
M  V30 26 N -9.2583 -2.2043 0.0 0
M  V30 27 C 0.9889 5.493 0.0 0
M  V30 28 C 2.3354 3.2529 0.0 0
M  V30 29 C -10.5929 -1.4417 0.0 0
M  V30 30 C 2.2997 4.7543 0.0 0
M  V30 31 C -11.3674 -0.1191 0.0 0
M  V30 32 C -11.8917 -2.1805 0.0 0
M  V30 33 C -9.8779 -0.1191 0.0 0
M  V30 34 C 3.5508 5.5407 0.0 0
M  V30 END ATOM
M  V30 BEGIN BOND
M  V30 1 2 1 2
M  V30 2 1 2 3
M  V30 3 1 2 4
M  V30 4 1 3 5
M  V30 5 2 4 6
M  V30 6 1 4 7
M  V30 7 2 5 8
M  V30 8 1 5 9
M  V30 9 1 6 10
M  V30 10 2 7 11
M  V30 11 1 8 12
M  V30 12 1 8 13
M  V30 13 2 9 14
M  V30 14 2 10 15
M  V30 15 1 12 16
M  V30 16 2 13 17
M  V30 17 1 14 18
M  V30 18 1 15 19
M  V30 19 2 16 20
M  V30 20 1 16 21
M  V30 21 1 18 22 CFG=1
M  V30 22 1 18 23
M  V30 23 2 21 24
M  V30 24 1 21 25
M  V30 25 1 23 26
M  V30 26 1 24 27
M  V30 27 2 25 28
M  V30 28 1 26 29
M  V30 29 2 27 30
M  V30 30 1 29 31
M  V30 31 1 29 32
M  V30 32 1 29 33
M  V30 33 1 30 34
M  V30 34 1 11 15
M  V30 35 1 14 17
M  V30 36 1 28 30
M  V30 END BOND
M  V30 BEGIN COLLECTION
M  V30 MDLV30/STERAC1 ATOMS=(1 18)
M  V30 END COLLECTION
M  V30 END CTAB
M  END
>  <SMILES>
CC1=CC=C(C=C1)C(=O)OC1=C(OC(=O)C2=CC=C(C)C=C2)C=C(C=C1)C(O)CNC(C)(C)C

>  <INCHI_IDENTIFIER>
InChI=1S/C28H31NO5/c1-18-6-10-20(11-7-18)26(31)33-24-15-14-22(23(30)17-29-28(3,4)5)16-25(24)34-27(32)21-12-8-19(2)9-13-21/h6-16,23,29-30H,17H2,1-5H3

>  <INCHI_KEY>
FZGVEKPRDOIXJY-UHFFFAOYSA-N

>  <FORMULA>
C28H31NO5

>  <MOLECULAR_WEIGHT>
461.5494

>  <DRUGBANK_ID>
DB00901

>  <DRUG_GROUPS>
withdrawn

>  <GENERIC_NAME>
Bitolterol

>  <SYNONYMS>
4-(2-(tert-butylamino)-1-hydroxyethyl)-o-phenylene di-p-toluate; 4-[2-(tert-butylamino)-1-hydroxyethyl]-o-phenylene di-p-toluate; bis(4-methylbenzoic acid) 4-[2-(tert-butylamino)-1-hydroxyethyl]-1,2-phenylene ester; Bitolt√©rol; Bitolterol; Bitolterolum

$$$$
Compound 7
Actelion Java MolfileCreator 2.0

  0  0  0  0  0  0              0 V3000
M  V30 BEGIN CTAB
M  V30 COUNTS 26 26 0 0 0
M  V30 BEGIN ATOM
M  V30 1 O 0.0 0.0 0.0 0
M  V30 2 C 1.2805 -0.73 0.0 0
M  V30 3 O 2.561 0.0359 0.0 0
M  V30 4 C 1.2565 -2.2139 0.0 0
M  V30 5 C 2.5371 1.5677 0.0 0
M  V30 6 C -0.0718 -2.944 0.0 0
M  V30 7 C 3.8176 2.3336 0.0 0
M  V30 8 C -0.0957 -4.4279 0.0 0
M  V30 9 C -1.4001 -2.178 0.0 0
M  V30 10 C -1.4241 -5.1579 0.0 0
M  V30 11 C -1.448 -6.6419 0.0 0
M  V30 12 C -2.7764 -7.3839 0.0 0
M  V30 13 C -2.8003 -8.8679 0.0 0
M  V30 14 C -4.1048 -6.606 0.0 0
M  V30 15 C -4.1287 -9.5979 0.0 0
M  V30 16 C -4.1527 -11.0819 0.0 0
M  V30 17 C -5.4811 -11.8119 0.0 0
M  V30 18 C -2.8722 -11.8119 0.0 0
M  V30 19 C -5.505 -13.2959 0.0 0
M  V30 20 C -6.8095 -11.046 0.0 0
M  V30 21 C -2.8961 -13.2959 0.0 0
M  V30 22 C -1.5916 -11.046 0.0 0
M  V30 23 C -4.2245 -14.0259 0.0 0
M  V30 24 C -6.8334 -14.0259 0.0 0
M  V30 25 O -4.2484 -15.5098 0.0 0
M  V30 26 C -2.9679 -16.2399 0.0 0
M  V30 END ATOM
M  V30 BEGIN BOND
M  V30 1 2 1 2
M  V30 2 1 2 3
M  V30 3 1 2 4
M  V30 4 1 3 5
M  V30 5 2 4 6 CFG=2
M  V30 6 1 5 7
M  V30 7 1 6 8
M  V30 8 1 6 9
M  V30 9 2 8 10 CFG=2
M  V30 10 1 10 11
M  V30 11 2 11 12 CFG=2
M  V30 12 1 12 13
M  V30 13 1 12 14
M  V30 14 2 13 15 CFG=2
M  V30 15 1 15 16
M  V30 16 2 16 17
M  V30 17 1 16 18
M  V30 18 1 17 19
M  V30 19 1 17 20
M  V30 20 2 18 21
M  V30 21 1 18 22
M  V30 22 2 19 23
M  V30 23 1 19 24
M  V30 24 1 23 25
M  V30 25 1 25 26
M  V30 26 1 21 23
M  V30 END BOND
M  V30 END CTAB
M  END
>  <SMILES>
CCOC(=O)C=C(C)C=CC=C(C)C=CC1=C(C)C(C)=C(OC)C=C1C

>  <INCHI_IDENTIFIER>
InChI=1S/C23H30O3/c1-8-26-23(24)14-17(3)11-9-10-16(2)12-13-21-18(4)15-22(25-7)20(6)19(21)5/h9-15H,8H2,1-7H3

>  <INCHI_KEY>
HQMNCQVAMBCHCO-UHFFFAOYSA-N

>  <FORMULA>
C23H30O3

>  <MOLECULAR_WEIGHT>
354.4825

>  <DRUGBANK_ID>
DB00926

>  <DRUG_GROUPS>
withdrawn

>  <GENERIC_NAME>
Etretinate

>  <SYNONYMS>
Etretinate; etretinato

$$$$
Compound 8
Actelion Java MolfileCreator 2.0

  0  0  0  0  0  0              0 V3000
M  V30 BEGIN CTAB
M  V30 COUNTS 30 33 0 0 0
M  V30 BEGIN ATOM
M  V30 1 S 0.0 0.0 0.0 0
M  V30 2 C 1.2699 -0.7477 0.0 0
M  V30 3 C -1.3411 -0.7477 0.0 0
M  V30 4 C 1.2461 -2.2431 0.0 0
M  V30 5 C 2.5398 0.0593 0.0 0
M  V30 6 C -1.3648 -2.2431 0.0 0
M  V30 7 C -2.6941 0.0593 0.0 0
M  V30 8 N -0.0712 -2.9789 0.0 0
M  V30 9 C 2.5161 -2.9789 0.0 0
M  V30 10 C 3.8453 -0.6883 0.0 0
M  V30 11 C -2.7178 -2.9789 0.0 0
M  V30 12 C -4.0352 -0.6883 0.0 0
M  V30 13 C -0.0949 -4.4744 0.0 0
M  V30 14 C 3.8216 -2.1838 0.0 0
M  V30 15 C -4.059 -2.1838 0.0 0
M  V30 16 C 1.1749 -5.1746 0.0 0
M  V30 17 C 5.0797 -2.9196 0.0 0
M  V30 18 C 1.1512 -6.6463 0.0 0
M  V30 19 O 5.0559 -4.415 0.0 0
M  V30 20 C 6.3852 -2.1244 0.0 0
M  V30 21 N 2.4211 -7.3822 0.0 0
M  V30 22 C 7.667 -2.8603 0.0 0
M  V30 23 C 2.3974 -8.8657 0.0 0
M  V30 24 C 3.7267 -6.587 0.0 0
M  V30 25 C 3.7029 -9.6134 0.0 0
M  V30 26 C 4.9847 -7.3347 0.0 0
M  V30 27 N 4.961 -8.8064 0.0 0
M  V30 28 C 6.2665 -9.5541 0.0 0
M  V30 29 C 7.5483 -8.747 0.0 0
M  V30 30 O 8.8301 -9.4948 0.0 0
M  V30 END ATOM
M  V30 BEGIN BOND
M  V30 1 1 1 2
M  V30 2 1 1 3
M  V30 3 2 2 4
M  V30 4 1 2 5
M  V30 5 2 3 6
M  V30 6 1 3 7
M  V30 7 1 4 8
M  V30 8 1 4 9
M  V30 9 2 5 10
M  V30 10 1 6 11
M  V30 11 2 7 12
M  V30 12 1 8 13
M  V30 13 2 9 14
M  V30 14 2 11 15
M  V30 15 1 13 16
M  V30 16 1 14 17
M  V30 17 1 16 18
M  V30 18 2 17 19
M  V30 19 1 17 20
M  V30 20 1 18 21
M  V30 21 1 20 22
M  V30 22 1 21 23
M  V30 23 1 21 24
M  V30 24 1 23 25
M  V30 25 1 24 26
M  V30 26 1 25 27
M  V30 27 1 27 28
M  V30 28 1 28 29
M  V30 29 1 29 30
M  V30 30 1 6 8
M  V30 31 1 10 14
M  V30 32 1 12 15
M  V30 33 1 26 27
M  V30 END BOND
M  V30 END CTAB
M  END
>  <SMILES>
CCC(=O)C1=CC=C2SC3=C(C=CC=C3)N(CCCN3CCN(CCO)CC3)C2=C1

>  <INCHI_IDENTIFIER>
InChI=1S/C24H31N3O2S/c1-2-22(29)19-8-9-24-21(18-19)27(20-6-3-4-7-23(20)30-24)11-5-10-25-12-14-26(15-13-25)16-17-28/h3-4,6-9,18,28H,2,5,10-17H2,1H3

>  <INCHI_KEY>
XZSMZRXAEFNJCU-UHFFFAOYSA-N

>  <FORMULA>
C24H31N3O2S

>  <MOLECULAR_WEIGHT>
425.59

>  <DRUGBANK_ID>
DB01038

>  <DRUG_GROUPS>
withdrawn

>  <GENERIC_NAME>
Carphenazine

>  <SYNONYMS>
Carfenazina; Carf√©nazine; Carfenazine; Carfenazinum; Carphenazine

$$$$
Compound 9
Actelion Java MolfileCreator 2.0

  0  0  0  0  0  0              0 V3000
M  V30 BEGIN CTAB
M  V30 COUNTS 30 33 0 0 0
M  V30 BEGIN ATOM
M  V30 1 F 0.0 0.0 0.0 0
M  V30 2 C -1.3121 -0.7167 0.0 0
M  V30 3 C -1.3364 -2.2475 0.0 0
M  V30 4 C -2.6849 0.0728 0.0 0
M  V30 5 N -0.0728 -2.9643 0.0 0
M  V30 6 C -2.7092 -2.9886 0.0 0
M  V30 7 C -4.0456 -0.6925 0.0 0
M  V30 8 C -0.0971 -4.4344 0.0 0
M  V30 9 C 1.2027 -2.1989 0.0 0
M  V30 10 C -4.0699 -2.1625 0.0 0
M  V30 11 C -5.3699 0.0728 0.0 0
M  V30 12 C 1.1663 -5.1512 0.0 0 CFG=1
M  V30 13 C 2.4662 -2.9157 0.0 0
M  V30 14 N -5.3942 -2.8793 0.0 0
M  V30 15 O -5.3942 1.5915 0.0 0
M  V30 16 C -6.6941 -0.6439 0.0 0
M  V30 17 N 2.4419 -4.3858 0.0 0
M  V30 18 C 1.142 -6.6212 0.0 0
M  V30 19 C -5.4185 -4.3493 0.0 0
M  V30 20 C -6.7184 -2.1139 0.0 0
M  V30 21 C -8.0184 0.1214 0.0 0
M  V30 22 C -6.7427 -5.0661 0.0 0
M  V30 23 C -4.1428 -5.0661 0.0 0
M  V30 24 O -8.0427 1.6401 0.0 0
M  V30 25 O -9.3426 -0.5953 0.0 0
M  V30 26 F -8.067 -4.3007 0.0 0
M  V30 27 C -6.767 -6.5362 0.0 0
M  V30 28 C -4.1671 -6.5362 0.0 0
M  V30 29 C -5.4914 -7.253 0.0 0
M  V30 30 F -5.5157 -8.723 0.0 0
M  V30 END ATOM
M  V30 BEGIN BOND
M  V30 1 1 1 2
M  V30 2 2 2 3
M  V30 3 1 2 4
M  V30 4 1 3 5
M  V30 5 1 3 6
M  V30 6 2 4 7
M  V30 7 1 5 8
M  V30 8 1 5 9
M  V30 9 2 6 10
M  V30 10 1 7 11
M  V30 11 1 8 12
M  V30 12 1 9 13
M  V30 13 1 10 14
M  V30 14 2 11 15
M  V30 15 1 11 16
M  V30 16 1 12 17
M  V30 17 1 12 18 CFG=1
M  V30 18 1 14 19
M  V30 19 1 14 20
M  V30 20 1 16 21
M  V30 21 2 19 22
M  V30 22 1 19 23
M  V30 23 2 21 24
M  V30 24 1 21 25
M  V30 25 1 22 26
M  V30 26 1 22 27
M  V30 27 2 23 28
M  V30 28 2 27 29
M  V30 29 1 29 30
M  V30 30 1 7 10
M  V30 31 1 13 17
M  V30 32 2 16 20
M  V30 33 1 28 29
M  V30 END BOND
M  V30 BEGIN COLLECTION
M  V30 MDLV30/STERAC1 ATOMS=(1 12)
M  V30 END COLLECTION
M  V30 END CTAB
M  END
>  <SMILES>
CC1CN(CCN1)C1=C(F)C=C2C(=O)C(=CN(C2=C1)C1=C(F)C=C(F)C=C1)C(O)=O

>  <INCHI_IDENTIFIER>
InChI=1S/C21H18F3N3O3/c1-11-9-26(5-4-25-11)19-8-18-13(7-16(19)24)20(28)14(21(29)30)10-27(18)17-3-2-12(22)6-15(17)23/h2-3,6-8,10-11,25H,4-5,9H2,1H3,(H,29,30)

>  <INCHI_KEY>
QKDHBVNJCZBTMR-UHFFFAOYSA-N

>  <FORMULA>
C21H18F3N3O3

>  <MOLECULAR_WEIGHT>
417.3811

>  <DRUGBANK_ID>
DB01405

>  <DRUG_GROUPS>
withdrawn

>  <GENERIC_NAME>
Temafloxacin

>  <SYNONYMS>
Temafloxacin; Temafloxacina; Temafloxacine; Temafloxacinum

$$$$
Compound 10
Actelion Java MolfileCreator 2.0

  0  0  0  0  0  0              0 V3000
M  V30 BEGIN CTAB
M  V30 COUNTS 21 24 0 0 0
M  V30 BEGIN ATOM
M  V30 1 O 0.0 0.0 0.0 0
M  V30 2 C -1.2074 -0.8404 0.0 0 CFG=2
M  V30 3 C -2.6042 -1.2547 0.0 0 CFG=2
M  V30 4 C -0.3787 -1.9886 0.0 0
M  V30 5 C -1.669 0.5681 0.0 0
M  V30 6 C -2.6278 -2.687 0.0 0 CFG=1
M  V30 7 C -3.8944 -0.509 0.0 0
M  V30 8 C -2.6278 0.2249 0.0 0
M  V30 9 C -1.2547 -3.1369 0.0 0
M  V30 10 C -0.7102 1.669 0.0 0
M  V30 11 C -3.9181 -3.3854 0.0 0 CFG=1
M  V30 12 C -5.1847 -1.2074 0.0 0
M  V30 13 C -5.2084 -2.6397 0.0 0 CFG=2
M  V30 14 C -3.9181 -4.8769 0.0 0
M  V30 15 C -6.5578 -3.3499 0.0 0 CFG=2
M  V30 16 C -5.2557 -5.6109 0.0 0
M  V30 17 C -6.5934 -4.8414 0.0 0
M  V30 18 C -7.931 -2.4976 0.0 0
M  V30 19 C -7.9783 -5.6227 0.0 0
M  V30 20 C -9.3396 -3.2315 0.0 0
M  V30 21 C -9.3751 -4.8059 0.0 0
M  V30 END ATOM
M  V30 BEGIN BOND
M  V30 1 1 2 1 CFG=1
M  V30 2 1 2 3
M  V30 3 1 2 4
M  V30 4 1 2 5
M  V30 5 1 3 6
M  V30 6 1 3 7
M  V30 7 1 3 8 CFG=1
M  V30 8 1 4 9
M  V30 9 1 5 10
M  V30 10 1 6 11
M  V30 11 1 7 12
M  V30 12 1 11 13
M  V30 13 1 11 14 CFG=3
M  V30 14 1 13 15
M  V30 15 1 14 16
M  V30 16 1 15 17
M  V30 17 1 15 18 CFG=3
M  V30 18 2 17 19
M  V30 19 1 18 20
M  V30 20 1 19 21
M  V30 21 1 6 9 CFG=1
M  V30 22 1 13 12 CFG=1
M  V30 23 1 16 17
M  V30 24 1 20 21
M  V30 END BOND
M  V30 BEGIN COLLECTION
M  V30 MDLV30/STEABS ATOMS=(6 2 3 6 11 13 15)
M  V30 END COLLECTION
M  V30 END CTAB
M  END
>  <SMILES>
[H][C@@]12CC[C@@](O)(CC)[C@@]1(C)CC[C@]1([H])[C@@]3([H])CCCC=C3CC[C@@]21[H]

>  <INCHI_IDENTIFIER>
InChI=1S/C20H32O/c1-3-20(21)13-11-18-17-9-8-14-6-4-5-7-15(14)16(17)10-12-19(18,20)2/h6,15-18,21H,3-5,7-13H2,1-2H3/t15-,16+,17+,18-,19-,20-/m0/s1

>  <INCHI_KEY>
AOXRBFRFYPMWLR-XGXHKTLJSA-N

>  <FORMULA>
C20H32O

>  <MOLECULAR_WEIGHT>
288.4675

>  <DRUGBANK_ID>
DB01493

>  <DRUG_GROUPS>
withdrawn

>  <GENERIC_NAME>
Ethylestrenol

>  <SYNONYMS>
Ethylestrenol; etilestrenol

$$$$
Compound 11
Actelion Java MolfileCreator 2.0

  0  0  0  0  0  0              0 V3000
M  V30 BEGIN CTAB
M  V30 COUNTS 24 25 0 0 0
M  V30 BEGIN ATOM
M  V30 1 S 0.0 0.0 0.0 0
M  V30 2 C -0.0237 -1.4732 0.0 0
M  V30 3 N 1.2474 -2.1979 0.0 0
M  V30 4 C -1.3425 -2.1979 0.0 0
M  V30 5 C 2.5187 -1.4256 0.0 0
M  V30 6 C 1.2237 -3.6711 0.0 0
M  V30 7 C -2.6613 -1.4256 0.0 0
M  V30 8 C -1.3662 -3.6711 0.0 0
M  V30 9 C 3.7899 -2.1504 0.0 0
M  V30 10 C -3.98 -2.1504 0.0 0
M  V30 11 C -2.685 0.095 0.0 0
M  V30 12 C -2.685 -4.4077 0.0 0
M  V30 13 O 5.0612 -1.3781 0.0 0
M  V30 14 O 3.7662 -3.6236 0.0 0
M  V30 15 C -5.2988 -1.3781 0.0 0
M  V30 16 C -4.0038 -3.6236 0.0 0
M  V30 17 C -4.0038 0.8672 0.0 0
M  V30 18 C -5.3226 0.1425 0.0 0
M  V30 19 C -6.6176 -2.1029 0.0 0
M  V30 20 O -6.6413 0.9148 0.0 0
M  V30 21 F -7.9363 -2.8395 0.0 0
M  V30 22 F -5.881 -3.3741 0.0 0
M  V30 23 F -7.3779 -0.7841 0.0 0
M  V30 24 C -7.9601 0.1782 0.0 0
M  V30 END ATOM
M  V30 BEGIN BOND
M  V30 1 2 1 2
M  V30 2 1 2 3
M  V30 3 1 2 4
M  V30 4 1 3 5
M  V30 5 1 3 6
M  V30 6 1 4 7
M  V30 7 2 4 8
M  V30 8 1 5 9
M  V30 9 1 7 10
M  V30 10 2 7 11
M  V30 11 1 8 12
M  V30 12 2 9 13
M  V30 13 1 9 14
M  V30 14 2 10 15
M  V30 15 1 10 16
M  V30 16 1 11 17
M  V30 17 1 15 18
M  V30 18 1 15 19
M  V30 19 1 18 20
M  V30 20 1 19 21
M  V30 21 1 19 22
M  V30 22 1 19 23
M  V30 23 1 20 24
M  V30 24 2 12 16
M  V30 25 2 17 18
M  V30 END BOND
M  V30 END CTAB
M  END
>  <SMILES>
COC1=C(C2=CC=CC(C(=S)N(C)CC(O)=O)=C2C=C1)C(F)(F)F

>  <INCHI_IDENTIFIER>
InChI=1S/C16H14F3NO3S/c1-20(8-13(21)22)15(24)11-5-3-4-10-9(11)6-7-12(23-2)14(10)16(17,18)19/h3-7H,8H2,1-2H3,(H,21,22)

>  <INCHI_KEY>
LUBHDINQXIHVLS-UHFFFAOYSA-N

>  <FORMULA>
C16H14F3NO3S

>  <MOLECULAR_WEIGHT>
357.347

>  <DRUGBANK_ID>
DB02383

>  <DRUG_GROUPS>
withdrawn

>  <GENERIC_NAME>
Tolrestat

>  <SYNONYMS>
Tolrestat

$$$$
Compound 12
Actelion Java MolfileCreator 2.0

  0  0  0  0  0  0              0 V3000
M  V30 BEGIN CTAB
M  V30 COUNTS 13 13 0 0 0
M  V30 BEGIN ATOM
M  V30 1 O 0.0 0.0 0.0 0
M  V30 2 C -1.3277 0.7655 0.0 0
M  V30 3 N -2.6555 0.0239 0.0 0
M  V30 4 C -1.3517 2.2967 0.0 0
M  V30 5 C -2.6794 -1.4593 0.0 0
M  V30 6 C -1.3995 -2.189 0.0 0
M  V30 7 C -4.0072 -2.189 0.0 0
M  V30 8 C -1.4234 -3.6723 0.0 0
M  V30 9 C -4.0312 -3.6723 0.0 0
M  V30 10 C -2.7512 -4.402 0.0 0
M  V30 11 O -2.7751 -5.8853 0.0 0
M  V30 12 C -4.1029 -6.6269 0.0 0
M  V30 13 C -4.1269 -8.1102 0.0 0
M  V30 END ATOM
M  V30 BEGIN BOND
M  V30 1 2 1 2
M  V30 2 1 2 3
M  V30 3 1 2 4
M  V30 4 1 3 5
M  V30 5 2 5 6
M  V30 6 1 5 7
M  V30 7 1 6 8
M  V30 8 2 7 9
M  V30 9 2 8 10
M  V30 10 1 10 11
M  V30 11 1 11 12
M  V30 12 1 12 13
M  V30 13 1 9 10
M  V30 END BOND
M  V30 END CTAB
M  END
>  <SMILES>
CCOC1=CC=C(NC(C)=O)C=C1

>  <INCHI_IDENTIFIER>
InChI=1S/C10H13NO2/c1-3-13-10-6-4-9(5-7-10)11-8(2)12/h4-7H,3H2,1-2H3,(H,11,12)

>  <INCHI_KEY>
CPJSUEIXXCENMM-UHFFFAOYSA-N

>  <FORMULA>
C10H13NO2

>  <MOLECULAR_WEIGHT>
179.2157

>  <DRUGBANK_ID>
DB03783

>  <DRUG_GROUPS>
withdrawn

>  <GENERIC_NAME>
Phenacetin

>  <SYNONYMS>
Acetophenetidin; Acetophenetidine; Acetophenetin; Acetphenetidin; Fenacetina; Phenacetin

$$$$
Compound 13
Actelion Java MolfileCreator 2.0

  0  0  0  0  0  0              0 V3000
M  V30 BEGIN CTAB
M  V30 COUNTS 22 22 0 0 0
M  V30 BEGIN ATOM
M  V30 1 I 0.0 0.0 0.0 0
M  V30 2 C 1.2844 -0.7322 0.0 0
M  V30 3 C 1.2603 -2.2206 0.0 0
M  V30 4 C 2.5688 0.036 0.0 0
M  V30 5 N -0.072 -2.9529 0.0 0
M  V30 6 C 2.5447 -2.9529 0.0 0
M  V30 7 C 3.8532 -0.6962 0.0 0
M  V30 8 C 2.5447 1.5724 0.0 0
M  V30 9 C -0.096 -4.4413 0.0 0
M  V30 10 I 2.5207 -4.4413 0.0 0
M  V30 11 C 3.8291 -2.1846 0.0 0
M  V30 12 I 5.1376 0.072 0.0 0
M  V30 13 C 3.8291 2.3407 0.0 0
M  V30 14 O 1.1883 -5.1736 0.0 0
M  V30 15 C -1.4284 -5.1736 0.0 0
M  V30 16 C 3.8051 3.8772 0.0 0
M  V30 17 C 5.1135 1.6085 0.0 0
M  V30 18 C -1.4524 -6.662 0.0 0
M  V30 19 O 2.4727 4.6574 0.0 0
M  V30 20 O 5.0895 4.6574 0.0 0
M  V30 21 C 6.3979 2.3767 0.0 0
M  V30 22 C -2.7848 -7.3943 0.0 0
M  V30 END ATOM
M  V30 BEGIN BOND
M  V30 1 1 1 2
M  V30 2 2 2 3
M  V30 3 1 2 4
M  V30 4 1 3 5
M  V30 5 1 3 6
M  V30 6 2 4 7
M  V30 7 1 4 8
M  V30 8 1 5 9
M  V30 9 1 6 10
M  V30 10 2 6 11
M  V30 11 1 7 12
M  V30 12 2 8 13
M  V30 13 2 9 14
M  V30 14 1 9 15
M  V30 15 1 13 16
M  V30 16 1 13 17
M  V30 17 1 15 18
M  V30 18 2 16 19
M  V30 19 1 16 20
M  V30 20 1 17 21
M  V30 21 1 18 22
M  V30 22 1 7 11
M  V30 END BOND
M  V30 END CTAB
M  END
>  <SMILES>
CCCC(=O)NC1=C(I)C=C(I)C(\C=C(/CC)C(O)=O)=C1I

>  <INCHI_IDENTIFIER>
InChI=1S/C15H16I3NO3/c1-3-5-12(20)19-14-11(17)7-10(16)9(13(14)18)6-8(4-2)15(21)22/h6-7H,3-5H2,1-2H3,(H,19,20)(H,21,22)/b8-6+

>  <INCHI_KEY>
CWRBDUIQDIHWJZ-SOFGYWHQSA-N

>  <FORMULA>
C15H16I3NO3

>  <MOLECULAR_WEIGHT>
639.0059

>  <DRUGBANK_ID>
DB04814

>  <DRUG_GROUPS>
withdrawn

>  <GENERIC_NAME>
Bunamiodyl

>  <SYNONYMS>
2-(3-Butyramido-3,4,6-triiodophenylmethylene)butyric acid; Bunamiodilo; Bunamiodylum

$$$$
Compound 14
Actelion Java MolfileCreator 2.0

  0  0  0  0  0  0              0 V3000
M  V30 BEGIN CTAB
M  V30 COUNTS 13 13 0 0 0
M  V30 BEGIN ATOM
M  V30 1 O 0.0 0.0 0.0 0
M  V30 2 C -0.0237 1.5202 0.0 0
M  V30 3 N 1.2233 2.2923 0.0 0
M  V30 4 C -1.3896 2.2923 0.0 0
M  V30 5 N 2.4704 1.5678 0.0 0
M  V30 6 C -2.6842 1.5678 0.0 0
M  V30 7 C -1.4133 3.8126 0.0 0
M  V30 8 C 3.7888 2.3398 0.0 0
M  V30 9 C -3.9788 2.3398 0.0 0
M  V30 10 C -2.708 4.5727 0.0 0
M  V30 11 C 5.0359 1.6153 0.0 0
M  V30 12 C 3.765 3.8601 0.0 0
M  V30 13 N -4.0026 3.8601 0.0 0
M  V30 END ATOM
M  V30 BEGIN BOND
M  V30 1 2 1 2
M  V30 2 1 2 3
M  V30 3 1 2 4
M  V30 4 1 3 5
M  V30 5 2 4 6
M  V30 6 1 4 7
M  V30 7 1 5 8
M  V30 8 1 6 9
M  V30 9 2 7 10
M  V30 10 1 8 11
M  V30 11 1 8 12
M  V30 12 2 9 13
M  V30 13 1 10 13
M  V30 END BOND
M  V30 END CTAB
M  END
>  <SMILES>
CC(C)NNC(=O)C1=CC=NC=C1

>  <INCHI_IDENTIFIER>
InChI=1S/C9H13N3O/c1-7(2)11-12-9(13)8-3-5-10-6-4-8/h3-7,11H,1-2H3,(H,12,13)

>  <INCHI_KEY>
NYMGNSNKLVNMIA-UHFFFAOYSA-N

>  <FORMULA>
C9H13N3O

>  <MOLECULAR_WEIGHT>
179.219

>  <DRUGBANK_ID>
DB04818

>  <DRUG_GROUPS>
withdrawn

>  <GENERIC_NAME>
Iproniazid

>  <SYNONYMS>
Iproniazid; Iproniazida; Iproniazide; Iproniazidum

$$$$
Compound 15
Actelion Java MolfileCreator 2.0

  0  0  0  0  0  0              0 V3000
M  V30 BEGIN CTAB
M  V30 COUNTS 18 19 0 0 0
M  V30 BEGIN ATOM
M  V30 1 S 0.0 0.0 0.0 0
M  V30 2 C 0.9141 -1.1546 0.0 0
M  V30 3 C -1.4313 -0.5171 0.0 0
M  V30 4 C 0.0601 -2.3815 0.0 0
M  V30 5 C 2.3935 -1.0464 0.0 0
M  V30 6 C -1.3831 -1.9966 0.0 0
M  V30 7 N 3.043 0.3247 0.0 0
M  V30 8 C 4.5224 0.433 0.0 0
M  V30 9 C 2.2371 1.5996 0.0 0
M  V30 10 N 5.3283 -0.7938 0.0 0
M  V30 11 C 5.196 1.7921 0.0 0
M  V30 12 C 0.7096 1.5515 0.0 0
M  V30 13 C 6.8077 -0.7096 0.0 0
M  V30 14 C 6.6754 1.9003 0.0 0
M  V30 15 N -0.1202 2.8385 0.0 0
M  V30 16 C 7.4692 0.6615 0.0 0
M  V30 17 C -1.6598 2.7904 0.0 0
M  V30 18 C 0.5412 4.1856 0.0 0
M  V30 END ATOM
M  V30 BEGIN BOND
M  V30 1 1 1 2
M  V30 2 1 1 3
M  V30 3 2 2 4
M  V30 4 1 2 5
M  V30 5 2 3 6
M  V30 6 1 5 7
M  V30 7 1 7 8
M  V30 8 1 7 9
M  V30 9 2 8 10
M  V30 10 1 8 11
M  V30 11 1 9 12
M  V30 12 1 10 13
M  V30 13 2 11 14
M  V30 14 1 12 15
M  V30 15 2 13 16
M  V30 16 1 15 17
M  V30 17 1 15 18
M  V30 18 1 4 6
M  V30 19 1 14 16
M  V30 END BOND
M  V30 END CTAB
M  END
>  <SMILES>
CN(C)CCN(CC1=CC=CS1)C1=NC=CC=C1

>  <INCHI_IDENTIFIER>
InChI=1S/C14H19N3S/c1-16(2)9-10-17(12-13-6-5-11-18-13)14-7-3-4-8-15-14/h3-8,11H,9-10,12H2,1-2H3

>  <INCHI_KEY>
HNJJXZKZRAWDPF-UHFFFAOYSA-N

>  <FORMULA>
C14H19N3S

>  <MOLECULAR_WEIGHT>
261.39

>  <DRUGBANK_ID>
DB04819

>  <DRUG_GROUPS>
withdrawn

>  <GENERIC_NAME>
Methapyrilene

>  <SYNONYMS>
2-[[2-(Dimethylamino)ethyl]-2-thenylamino]pyridine; Methypyrilene; N-(Œ±-pyridyl)-N-(Œ±-thenyl)-N',N'-dimethylethylenediamine; N,N-dimethyl-N'-pyrid-2-yl-N'-2-thenylethylenediamine; N,N-dimethyl-N'-pyridin-2-yl-N'-(2-thienylmethyl)ethane-1,2-diamine; Thenylpyramine

$$$$
Compound 16
Actelion Java MolfileCreator 2.0

  0  0  0  0  0  0              0 V3000
M  V30 BEGIN CTAB
M  V30 COUNTS 20 21 0 0 0
M  V30 BEGIN ATOM
M  V30 1 Cl 0.0 0.0 0.0 0
M  V30 2 C -0.0237 1.5197 0.0 0
M  V30 3 C 1.2466 2.2795 0.0 0
M  V30 4 C -1.3416 2.2795 0.0 0
M  V30 5 C 1.2228 3.7992 0.0 0
M  V30 6 C -1.3653 3.7992 0.0 0
M  V30 7 C -0.0949 4.571 0.0 0
M  V30 8 C -0.1187 6.0907 0.0 0
M  V30 9 O -1.4366 6.8624 0.0 0
M  V30 10 C 1.1516 6.8624 0.0 0
M  V30 11 N 1.2822 8.3702 0.0 0
M  V30 12 C 2.4932 6.2688 0.0 0
M  V30 13 C 2.7188 8.7027 0.0 0
M  V30 14 C 0.1543 9.3913 0.0 0
M  V30 15 C 3.4668 7.3967 0.0 0
M  V30 16 C 2.7782 4.8322 0.0 0
M  V30 17 C 3.3124 10.0918 0.0 0
M  V30 18 C 4.7728 10.2699 0.0 0
M  V30 19 O 5.6276 9.0826 0.0 0
M  V30 20 O 5.3664 11.659 0.0 0
M  V30 END ATOM
M  V30 BEGIN BOND
M  V30 1 1 1 2
M  V30 2 2 2 3
M  V30 3 1 2 4
M  V30 4 1 3 5
M  V30 5 2 4 6
M  V30 6 2 5 7
M  V30 7 1 7 8
M  V30 8 2 8 9
M  V30 9 1 8 10
M  V30 10 1 10 11
M  V30 11 2 10 12
M  V30 12 1 11 13
M  V30 13 1 11 14
M  V30 14 1 12 15
M  V30 15 1 12 16
M  V30 16 1 13 17
M  V30 17 1 17 18
M  V30 18 2 18 19
M  V30 19 1 18 20
M  V30 20 1 6 7
M  V30 21 2 13 15
M  V30 END BOND
M  V30 END CTAB
M  END
>  <SMILES>
CN1C(CC(O)=O)=CC(C)=C1C(=O)C1=CC=C(Cl)C=C1

>  <INCHI_IDENTIFIER>
InChI=1S/C15H14ClNO3/c1-9-7-12(8-13(18)19)17(2)14(9)15(20)10-3-5-11(16)6-4-10/h3-7H,8H2,1-2H3,(H,18,19)

>  <INCHI_KEY>
ZXVNMYWKKDOREA-UHFFFAOYSA-N

>  <FORMULA>
C15H14ClNO3

>  <MOLECULAR_WEIGHT>
291.73

>  <DRUGBANK_ID>
DB04828

>  <DRUG_GROUPS>
withdrawn

>  <GENERIC_NAME>
Zomepirac

>  <SYNONYMS>
5-(4-Chlorobenzoyl)-1,4-dimethyl-1H-pyrrole-2-acetic acid; Zomepiracum

$$$$
Compound 17
Actelion Java MolfileCreator 2.0

  0  0  0  0  0  0              0 V3000
M  V30 BEGIN CTAB
M  V30 COUNTS 20 21 0 0 0
M  V30 BEGIN ATOM
M  V30 1 Cl 0.0 0.0 0.0 0
M  V30 2 C 1.2791 0.7651 0.0 0
M  V30 3 C 1.2552 2.2953 0.0 0
M  V30 4 C 2.5583 0.0358 0.0 0
M  V30 5 Cl -0.0717 3.0604 0.0 0
M  V30 6 C 2.5344 3.0604 0.0 0
M  V30 7 O 2.5344 -1.4465 0.0 0
M  V30 8 C 3.8375 0.8009 0.0 0
M  V30 9 C 2.5105 4.5906 0.0 0
M  V30 10 C 3.8136 2.3192 0.0 0
M  V30 11 C 3.8136 -2.1877 0.0 0
M  V30 12 O 1.1835 5.3677 0.0 0
M  V30 13 C 3.7897 5.3677 0.0 0
M  V30 14 C 3.7897 -3.6701 0.0 0
M  V30 15 S 3.9212 6.886 0.0 0
M  V30 16 C 5.1406 4.77 0.0 0
M  V30 17 O 2.4627 -4.3994 0.0 0
M  V30 18 O 5.0688 -4.3994 0.0 0
M  V30 19 C 5.3677 7.2207 0.0 0
M  V30 20 C 6.1209 5.9057 0.0 0
M  V30 END ATOM
M  V30 BEGIN BOND
M  V30 1 1 1 2
M  V30 2 2 2 3
M  V30 3 1 2 4
M  V30 4 1 3 5
M  V30 5 1 3 6
M  V30 6 1 4 7
M  V30 7 2 4 8
M  V30 8 1 6 9
M  V30 9 2 6 10
M  V30 10 1 7 11
M  V30 11 2 9 12
M  V30 12 1 9 13
M  V30 13 1 11 14
M  V30 14 1 13 15
M  V30 15 2 13 16
M  V30 16 2 14 17
M  V30 17 1 14 18
M  V30 18 1 15 19
M  V30 19 1 16 20
M  V30 20 1 8 10
M  V30 21 2 19 20
M  V30 END BOND
M  V30 END CTAB
M  END
>  <SMILES>
OC(=O)COC1=C(Cl)C(Cl)=C(C=C1)C(=O)C1=CC=CS1

>  <INCHI_IDENTIFIER>
InChI=1S/C13H8Cl2O4S/c14-11-7(13(18)9-2-1-5-20-9)3-4-8(12(11)15)19-6-10(16)17/h1-5H,6H2,(H,16,17)

>  <INCHI_KEY>
AGHANLSBXUWXTB-UHFFFAOYSA-N

>  <FORMULA>
C13H8Cl2O4S

>  <MOLECULAR_WEIGHT>
331.171

>  <DRUGBANK_ID>
DB04831

>  <DRUG_GROUPS>
withdrawn

>  <GENERIC_NAME>
Tienilic acid

>  <SYNONYMS>
(2,3-Dichloro-4-(2-thenoyl)phenoxy)acetic acid; (2,3-Dichloro-4-(2-thiophenecarbonyl)phenoxy)acetic acid; 4-(2-Theonyl)-2,3-dichlorphenoxyessigs√§ure; 4-(2-Thienylketo)-2,3-dichlorophenoxyacetic acid; Acide ti√©nilique; √°cido tienilico; Acidum tienilicum; Thienylic acid; Ticrynafen; Tienilic acid; Tienilico acido

$$$$
Compound 18
Actelion Java MolfileCreator 2.0

  0  0  0  0  0  0              0 V3000
M  V30 BEGIN CTAB
M  V30 COUNTS 25 26 0 0 0
M  V30 BEGIN ATOM
M  V30 1 O 0.0 0.0 0.0 0
M  V30 2 C -0.7729 1.3199 0.0 0
M  V30 3 O -2.2951 1.3437 0.0 0
M  V30 4 C -0.0356 2.6399 0.0 0
M  V30 5 C -3.0681 0.0713 0.0 0 CFG=2
M  V30 6 C 1.4389 2.6637 0.0 0
M  V30 7 C -4.3881 0.8443 0.0 0
M  V30 8 C -3.841 -1.201 0.0 0 CFG=1
M  V30 9 C -1.7956 -0.6659 0.0 0
M  V30 10 C -5.708 0.107 0.0 0
M  V30 11 C -4.4118 2.3664 0.0 0
M  V30 12 C -5.3632 -1.1772 0.0 0
M  V30 13 C -4.0194 -2.6637 0.0 0
M  V30 14 C -1.8194 -2.1405 0.0 0
M  V30 15 C -7.028 0.8799 0.0 0
M  V30 16 C -5.7318 3.1394 0.0 0
M  V30 17 N -6.1362 -2.4497 0.0 0
M  V30 18 C -0.547 -2.8778 0.0 0
M  V30 19 C -3.1394 -2.8778 0.0 0
M  V30 20 C -7.0518 2.4021 0.0 0
M  V30 21 C -7.6583 -2.4259 0.0 0
M  V30 22 C -5.3989 -3.7221 0.0 0
M  V30 23 C -0.5708 -4.3524 0.0 0
M  V30 24 C -3.1632 -4.3524 0.0 0
M  V30 25 C -1.8908 -5.0778 0.0 0
M  V30 END ATOM
M  V30 BEGIN BOND
M  V30 1 2 1 2
M  V30 2 1 2 3
M  V30 3 1 2 4
M  V30 4 1 5 3 CFG=1
M  V30 5 1 4 6
M  V30 6 1 5 7
M  V30 7 1 5 8
M  V30 8 1 5 9
M  V30 9 2 7 10
M  V30 10 1 7 11
M  V30 11 1 8 12
M  V30 12 1 8 13 CFG=3
M  V30 13 1 9 14
M  V30 14 1 10 15
M  V30 15 2 11 16
M  V30 16 1 12 17
M  V30 17 2 14 18
M  V30 18 1 14 19
M  V30 19 2 15 20
M  V30 20 1 17 21
M  V30 21 1 17 22
M  V30 22 1 18 23
M  V30 23 2 19 24
M  V30 24 2 23 25
M  V30 25 1 16 20
M  V30 26 1 24 25
M  V30 END BOND
M  V30 BEGIN COLLECTION
M  V30 MDLV30/STERAC1 ATOMS=(2 5 8)
M  V30 END COLLECTION
M  V30 END CTAB
M  END
>  <SMILES>
[H][C@](C)(CN(C)C)[C@@](CC1=CC=CC=C1)(OC(=O)CC)C1=CC=CC=C1

>  <INCHI_IDENTIFIER>
InChI=1S/C22H29NO2/c1-5-21(24)25-22(18(2)17-23(3)4,20-14-10-7-11-15-20)16-19-12-8-6-9-13-19/h6-15,18H,5,16-17H2,1-4H3/t18-,22+/m0/s1

>  <INCHI_KEY>
XLMALTXPSGQGBX-PGRDOPGGSA-N

>  <FORMULA>
C22H29NO2

>  <MOLECULAR_WEIGHT>
339.479

>  <DRUGBANK_ID>
DB06793

>  <DRUG_GROUPS>
withdrawn

>  <GENERIC_NAME>
Levopropoxyphene

>  <SYNONYMS>
(-)-Propoxyphene; (l)-Propoxyphene; levopropoxifeno; Levopropoxyphene

$$$$
Compound 19
Actelion Java MolfileCreator 2.0

  0  0  0  0  0  0              0 V3000
M  V30 BEGIN CTAB
M  V30 COUNTS 22 24 0 0 0
M  V30 BEGIN ATOM
M  V30 1 O 0.0 0.0 0.0 0
M  V30 2 C 1.1272 -0.9473 0.0 0
M  V30 3 N 2.5663 -0.5636 0.0 0
M  V30 4 C 0.9953 -2.4344 0.0 0 CFG=2
M  V30 5 N 3.3338 -1.8228 0.0 0
M  V30 6 C 3.2618 0.7914 0.0 0
M  V30 7 C 2.3744 -2.986 0.0 0
M  V30 8 C -0.3117 -3.2019 0.0 0
M  V30 9 C 4.8208 -1.7508 0.0 0
M  V30 10 N 4.7489 0.8634 0.0 0
M  V30 11 N 2.4464 2.0986 0.0 0
M  V30 12 O 2.7102 -4.4251 0.0 0
M  V30 13 C -1.6669 -2.4584 0.0 0
M  V30 14 C 5.5164 -0.3957 0.0 0
M  V30 15 C 5.5883 -3.01 0.0 0
M  V30 16 C 3.1419 3.4537 0.0 0
M  V30 17 C 0.9114 2.0746 0.0 0
M  V30 18 C -2.974 -3.2259 0.0 0
M  V30 19 C 7.0034 -0.3237 0.0 0
M  V30 20 C 7.0754 -2.938 0.0 0
M  V30 21 C 7.7709 -1.5829 0.0 0
M  V30 22 C 7.8429 -4.1972 0.0 0
M  V30 END ATOM
M  V30 BEGIN BOND
M  V30 1 2 1 2
M  V30 2 1 2 3
M  V30 3 1 2 4
M  V30 4 1 3 5
M  V30 5 1 3 6
M  V30 6 1 4 7
M  V30 7 1 4 8 CFG=3
M  V30 8 1 5 9
M  V30 9 2 6 10
M  V30 10 1 6 11
M  V30 11 2 7 12
M  V30 12 1 8 13
M  V30 13 2 9 14
M  V30 14 1 9 15
M  V30 15 1 11 16
M  V30 16 1 11 17
M  V30 17 2 13 18
M  V30 18 1 14 19
M  V30 19 2 15 20
M  V30 20 2 19 21
M  V30 21 1 20 22
M  V30 22 1 5 7
M  V30 23 1 10 14
M  V30 24 1 20 21
M  V30 END BOND
M  V30 BEGIN COLLECTION
M  V30 MDLV30/STERAC1 ATOMS=(1 4)
M  V30 END COLLECTION
M  V30 END CTAB
M  END
>  <SMILES>
[H][C@@]1(CC=C)C(=O)N2N(C1=O)C1=CC(C)=CC=C1N=C2N(C)C

>  <INCHI_IDENTIFIER>
InChI=1S/C16H18N4O2/c1-5-6-11-14(21)19-13-9-10(2)7-8-12(13)17-16(18(3)4)20(19)15(11)22/h5,7-9,11H,1,6H2,2-4H3/t11-/m0/s1

>  <INCHI_KEY>
WOIIIUDZSOLAIW-NSHDSACASA-N

>  <FORMULA>
C16H18N4O2

>  <MOLECULAR_WEIGHT>
298.3397

>  <DRUGBANK_ID>
DB07402

>  <DRUG_GROUPS>
withdrawn

>  <GENERIC_NAME>
Azapropazone

>  <SYNONYMS>
1,2-Dihydro-3-dimethylamino-7-methyl-1,2-(propylmalonyl)-1,2,4-benzotriazine; 3-Dimethylamino-7-methyl-1,2-(n-propylmalonyl)-1,2-dihydro-1,2,4-benzotriazine; 5-(Dimethylamino)-9-methyl-2-propyl-1H-pyrazolo(1,2-a)(1,2,4)benzotriazine-1,3(2H)-dione; Apazone; Azapropazon; Azapropazona; Azapropazone; Azapropazonum

$$$$
Compound 20
Actelion Java MolfileCreator 2.0

  0  0  0  0  0  0              0 V3000
M  V30 BEGIN CTAB
M  V30 COUNTS 20 21 0 0 0
M  V30 BEGIN ATOM
M  V30 1 O 0.0 0.0 0.0 0
M  V30 2 C -0.0236 1.5117 0.0 0
M  V30 3 C 1.24 2.2794 0.0 0
M  V30 4 C -1.3345 2.2794 0.0 0
M  V30 5 C 1.2164 3.7911 0.0 0
M  V30 6 C -1.3581 3.7911 0.0 0
M  V30 7 C -0.0944 4.547 0.0 0
M  V30 8 C -0.1181 6.0587 0.0 0 CFG=2
M  V30 9 C -1.429 6.8146 0.0 0 CFG=2
M  V30 10 C 1.1456 6.8146 0.0 0
M  V30 11 C -1.4526 8.3263 0.0 0
M  V30 12 C -2.74 6.0941 0.0 0
M  V30 13 C 2.4093 6.0941 0.0 0
M  V30 14 C -0.1889 9.0822 0.0 0
M  V30 15 C -2.7636 9.0822 0.0 0
M  V30 16 C -4.0509 6.85 0.0 0
M  V30 17 C -0.2125 10.5939 0.0 0
M  V30 18 C -2.7872 10.5939 0.0 0
M  V30 19 C -1.5235 11.3498 0.0 0
M  V30 20 O -1.5471 12.8615 0.0 0
M  V30 END ATOM
M  V30 BEGIN BOND
M  V30 1 1 1 2
M  V30 2 2 2 3
M  V30 3 1 2 4
M  V30 4 1 3 5
M  V30 5 2 4 6
M  V30 6 2 5 7
M  V30 7 1 7 8
M  V30 8 1 8 9
M  V30 9 1 8 10 CFG=3
M  V30 10 1 9 11
M  V30 11 1 9 12 CFG=1
M  V30 12 1 10 13
M  V30 13 2 11 14
M  V30 14 1 11 15
M  V30 15 1 12 16
M  V30 16 1 14 17
M  V30 17 2 15 18
M  V30 18 2 17 19
M  V30 19 1 19 20
M  V30 20 1 6 7
M  V30 21 1 18 19
M  V30 END BOND
M  V30 BEGIN COLLECTION
M  V30 MDLV30/STEABS ATOMS=(2 8 9)
M  V30 END COLLECTION
M  V30 END CTAB
M  END
>  <SMILES>
[H][C@](CC)(C1=CC=C(O)C=C1)[C@]([H])(CC)C1=CC=C(O)C=C1

>  <INCHI_IDENTIFIER>
InChI=1S/C18H22O2/c1-3-17(13-5-9-15(19)10-6-13)18(4-2)14-7-11-16(20)12-8-14/h5-12,17-20H,3-4H2,1-2H3/t17-,18+

>  <INCHI_KEY>
PBBGSZCBWVPOOL-HDICACEKSA-N

>  <FORMULA>
C18H22O2

>  <MOLECULAR_WEIGHT>
270.3661

>  <DRUGBANK_ID>
DB07931

>  <DRUG_GROUPS>
withdrawn

>  <GENERIC_NAME>
Hexestrol

>  <SYNONYMS>
4,4'-(1,2-diethylethylene)diphenol; Erythrohexestrol; Hexanoestrol; Hexoestrolum; Meso-3,4-di(p-hydroxyphenyl)-n-hexane; Meso-hexestrol; Mesohexestrol; Synoestrolum

$$$$
Compound 21
Actelion Java MolfileCreator 2.0

  0  0  0  0  0  0              0 V3000
M  V30 BEGIN CTAB
M  V30 COUNTS 30 33 0 0 0
M  V30 BEGIN ATOM
M  V30 1 O 0.0 0.0 0.0 0
M  V30 2 C 1.4701 -0.1314 0.0 0
M  V30 3 O 1.4461 1.3983 0.0 0
M  V30 4 C 2.7489 -0.8724 0.0 0
M  V30 5 C 2.725 2.1752 0.0 0
M  V30 6 C 4.0278 -0.0956 0.0 0
M  V30 7 C 2.725 -2.3545 0.0 0
M  V30 8 C 4.0039 1.4342 0.0 0
M  V30 9 C 2.7011 3.7051 0.0 0
M  V30 10 O 5.3067 -0.8366 0.0 0
M  V30 11 C 1.3983 -3.0955 0.0 0
M  V30 12 C 4.0039 -3.0955 0.0 0
M  V30 13 C 5.2828 2.2111 0.0 0
M  V30 14 C 3.98 4.482 0.0 0
M  V30 15 C 1.3744 -4.5776 0.0 0
M  V30 16 C 0.0717 -2.3306 0.0 0
M  V30 17 O 5.2828 -2.3306 0.0 0
M  V30 18 O 3.98 -4.5776 0.0 0
M  V30 19 C 5.2589 3.7409 0.0 0
M  V30 20 O 2.6533 -5.3067 0.0 0
M  V30 21 O 0.0478 -5.3067 0.0 0
M  V30 22 O 0.0478 -0.8007 0.0 0
M  V30 23 C -1.2549 -3.0716 0.0 0
M  V30 24 C 5.2589 -5.3067 0.0 0
M  V30 25 C -1.2788 -4.5298 0.0 0
M  V30 26 C -2.5816 -2.2947 0.0 0
M  V30 27 C 5.2349 -6.7887 0.0 0
M  V30 28 C -2.6055 -5.2589 0.0 0
M  V30 29 C -3.9083 -3.0358 0.0 0
M  V30 30 C -3.9322 -4.482 0.0 0
M  V30 END ATOM
M  V30 BEGIN BOND
M  V30 1 2 1 2
M  V30 2 1 2 3
M  V30 3 1 2 4
M  V30 4 1 3 5
M  V30 5 2 4 6
M  V30 6 1 4 7
M  V30 7 2 5 8
M  V30 8 1 5 9
M  V30 9 1 6 10
M  V30 10 1 7 11
M  V30 11 1 7 12
M  V30 12 1 8 13
M  V30 13 2 9 14
M  V30 14 1 11 15
M  V30 15 2 11 16
M  V30 16 2 12 17
M  V30 17 1 12 18
M  V30 18 2 13 19
M  V30 19 2 15 20
M  V30 20 1 15 21
M  V30 21 1 16 22
M  V30 22 1 16 23
M  V30 23 1 18 24
M  V30 24 1 21 25
M  V30 25 1 23 26
M  V30 26 1 24 27
M  V30 27 1 25 28
M  V30 28 2 26 29
M  V30 29 2 28 30
M  V30 30 1 6 8
M  V30 31 1 14 19
M  V30 32 2 23 25
M  V30 33 1 29 30
M  V30 END BOND
M  V30 END CTAB
M  END
>  <SMILES>
CCOC(=O)C(C1=C(O)C2=CC=CC=C2OC1=O)C1=C(O)C2=CC=CC=C2OC1=O

>  <INCHI_IDENTIFIER>
InChI=1S/C22H16O8/c1-2-28-20(25)15(16-18(23)11-7-3-5-9-13(11)29-21(16)26)17-19(24)12-8-4-6-10-14(12)30-22(17)27/h3-10,15,23-24H,2H2,1H3

>  <INCHI_KEY>
JCLHQFUTFHUXNN-UHFFFAOYSA-N

>  <FORMULA>
C22H16O8

>  <MOLECULAR_WEIGHT>
408.362

>  <DRUGBANK_ID>
DB08794

>  <DRUG_GROUPS>
withdrawn

>  <GENERIC_NAME>
Ethyl biscoumacetate

>  <SYNONYMS>
Ethyl bis(4-hydroxy-2-oxo-2h-1-benzopyran-3-yl)acetate; Ethyldicoumarol

$$$$
Compound 22
Actelion Java MolfileCreator 2.0

  0  0  0  0  0  0              0 V3000
M  V30 BEGIN CTAB
M  V30 COUNTS 39 40 0 0 0
M  V30 BEGIN ATOM
M  V30 1 I 0.0 0.0 0.0 0
M  V30 2 C -1.3063 -0.762 0.0 0
M  V30 3 C -1.3305 -2.2014 0.0 0
M  V30 4 C -2.6248 0.0483 0.0 0
M  V30 5 N -0.0725 -2.9634 0.0 0
M  V30 6 C -2.6489 -2.9272 0.0 0
M  V30 7 C -3.9553 -0.6531 0.0 0
M  V30 8 C -2.6489 1.5724 0.0 0
M  V30 9 C 1.2095 -2.2014 0.0 0
M  V30 10 I -2.6731 -4.4029 0.0 0
M  V30 11 C -3.9795 -2.1288 0.0 0
M  V30 12 I -5.31 0.1935 0.0 0
M  V30 13 O -3.9795 2.3345 0.0 0
M  V30 14 O -1.3789 2.3345 0.0 0
M  V30 15 O 1.1853 -0.7015 0.0 0
M  V30 16 C 2.4917 -2.9513 0.0 0
M  V30 17 O 3.7739 -2.1893 0.0 0
M  V30 18 C 5.056 -2.9513 0.0 0
M  V30 19 C 6.314 -2.2014 0.0 0
M  V30 20 O 7.5962 -2.9513 0.0 0
M  V30 21 C 8.8662 -2.2135 0.0 0
M  V30 22 C 10.1484 -2.9755 0.0 0
M  V30 23 O 11.4185 -2.2014 0.0 0
M  V30 24 C 12.6885 -2.9513 0.0 0
M  V30 25 C 13.9707 -2.2014 0.0 0
M  V30 26 O 13.9465 -0.7015 0.0 0
M  V30 27 N 15.2529 -2.9634 0.0 0
M  V30 28 C 16.5592 -2.2014 0.0 0
M  V30 29 C 16.535 -0.7015 0.0 0
M  V30 30 C 17.8414 -2.9151 0.0 0
M  V30 31 I 15.1803 0.0967 0.0 0
M  V30 32 C 17.8172 0.0967 0.0 0
M  V30 33 I 17.8172 -4.3908 0.0 0
M  V30 34 C 19.1235 -2.153 0.0 0
M  V30 35 C 19.0994 -0.6652 0.0 0
M  V30 36 C 17.793 1.645 0.0 0
M  V30 37 I 20.3694 0.133 0.0 0
M  V30 38 O 16.4625 2.3949 0.0 0
M  V30 39 O 19.0752 2.3949 0.0 0
M  V30 END ATOM
M  V30 BEGIN BOND
M  V30 1 1 1 2
M  V30 2 2 2 3
M  V30 3 1 2 4
M  V30 4 1 3 5
M  V30 5 1 3 6
M  V30 6 2 4 7
M  V30 7 1 4 8
M  V30 8 1 5 9
M  V30 9 1 6 10
M  V30 10 2 6 11
M  V30 11 1 7 12
M  V30 12 2 8 13
M  V30 13 1 8 14
M  V30 14 2 9 15
M  V30 15 1 9 16
M  V30 16 1 16 17
M  V30 17 1 17 18
M  V30 18 1 18 19
M  V30 19 1 19 20
M  V30 20 1 20 21
M  V30 21 1 21 22
M  V30 22 1 22 23
M  V30 23 1 23 24
M  V30 24 1 24 25
M  V30 25 2 25 26
M  V30 26 1 25 27
M  V30 27 1 27 28
M  V30 28 2 28 29
M  V30 29 1 28 30
M  V30 30 1 29 31
M  V30 31 1 29 32
M  V30 32 1 30 33
M  V30 33 2 30 34
M  V30 34 2 32 35
M  V30 35 1 32 36
M  V30 36 1 35 37
M  V30 37 2 36 38
M  V30 38 1 36 39
M  V30 39 1 7 11
M  V30 40 1 34 35
M  V30 END BOND
M  V30 END CTAB
M  END
>  <SMILES>
OC(=O)C1=C(I)C(NC(=O)COCCOCCOCC(=O)NC2=C(I)C(C(O)=O)=C(I)C=C2I)=C(I)C=C1I

>  <INCHI_IDENTIFIER>
InChI=1S/C22H18I6N2O9/c23-9-5-11(25)19(17(27)15(9)21(33)34)29-13(31)7-38-3-1-37-2-4-39-8-14(32)30-20-12(26)6-10(24)16(18(20)28)22(35)36/h5-6H,1-4,7-8H2,(H,29,31)(H,30,32)(H,33,34)(H,35,36)

>  <INCHI_KEY>
JXMIBUGMYLQZGO-UHFFFAOYSA-N

>  <FORMULA>
C22H18I6N2O9

>  <MOLECULAR_WEIGHT>
1215.8131

>  <DRUGBANK_ID>
DB08945

>  <DRUG_GROUPS>
experimental; withdrawn

>  <GENERIC_NAME>
Iotroxic acid

>  <SYNONYMS>
Acide iotroxique; Acido iotroxico; Acidum iotroxicum; Iotroxic acid; Iotroxinsaeure

$$$$
Compound 23
Actelion Java MolfileCreator 2.0

  0  0  0  0  0  0              0 V3000
M  V30 BEGIN CTAB
M  V30 COUNTS 21 21 0 0 0
M  V30 BEGIN ATOM
M  V30 1 I 0.0 0.0 0.0 0
M  V30 2 C -0.0239 -1.4855 0.0 0
M  V30 3 C -1.3537 -2.2163 0.0 0
M  V30 4 C 1.2579 -2.2163 0.0 0
M  V30 5 N -2.6835 -1.4496 0.0 0
M  V30 6 C -1.3777 -3.7018 0.0 0
M  V30 7 C 1.2339 -3.7018 0.0 0
M  V30 8 C 2.5398 -1.4376 0.0 0
M  V30 9 C -4.0133 -2.1803 0.0 0
M  V30 10 I -2.7075 -4.4326 0.0 0
M  V30 11 C -0.0958 -4.4326 0.0 0
M  V30 12 I 2.5158 -4.4326 0.0 0
M  V30 13 O 2.5158 0.0958 0.0 0
M  V30 14 O 3.8216 -2.1684 0.0 0
M  V30 15 O -4.0373 -3.6659 0.0 0
M  V30 16 C -5.3431 -1.4136 0.0 0
M  V30 17 C -0.1198 -5.9182 0.0 0
M  V30 18 N -1.4496 -6.649 0.0 0
M  V30 19 C -1.4735 -8.1345 0.0 0
M  V30 20 O -2.8033 -8.8653 0.0 0
M  V30 21 C -0.1916 -8.8653 0.0 0
M  V30 END ATOM
M  V30 BEGIN BOND
M  V30 1 1 1 2
M  V30 2 2 2 3
M  V30 3 1 2 4
M  V30 4 1 3 5
M  V30 5 1 3 6
M  V30 6 2 4 7
M  V30 7 1 4 8
M  V30 8 1 5 9
M  V30 9 1 6 10
M  V30 10 2 6 11
M  V30 11 1 7 12
M  V30 12 2 8 13
M  V30 13 1 8 14
M  V30 14 2 9 15
M  V30 15 1 9 16
M  V30 16 1 11 17
M  V30 17 1 17 18
M  V30 18 1 18 19
M  V30 19 2 19 20
M  V30 20 1 19 21
M  V30 21 1 7 11
M  V30 END BOND
M  V30 END CTAB
M  END
>  <SMILES>
CC(=O)NCC1=C(I)C(NC(C)=O)=C(I)C(C(O)=O)=C1I

>  <INCHI_IDENTIFIER>
InChI=1S/C12H11I3N2O4/c1-4(18)16-3-6-8(13)7(12(20)21)10(15)11(9(6)14)17-5(2)19/h3H2,1-2H3,(H,16,18)(H,17,19)(H,20,21)

>  <INCHI_KEY>
VVDGWALACJEJKG-UHFFFAOYSA-N

>  <FORMULA>
C12H11I3N2O4

>  <MOLECULAR_WEIGHT>
627.9402

>  <DRUGBANK_ID>
DB08948

>  <DRUG_GROUPS>
withdrawn

>  <GENERIC_NAME>
Iodamide

>  <SYNONYMS>
Ametriiodic acid; Ametriiodinic acid; Ametriodinic acid; Iodamida; Iodamide; Iodamidum; Urombrine

$$$$
Compound 24
Actelion Java MolfileCreator 2.0

  0  0  0  0  0  0              0 V3000
M  V30 BEGIN CTAB
M  V30 COUNTS 21 23 0 0 0
M  V30 BEGIN ATOM
M  V30 1 O 0.0 0.0 0.0 0
M  V30 2 C 0.4412 -1.4073 0.0 0
M  V30 3 N -0.4651 -2.5999 0.0 0
M  V30 4 C 1.8486 -1.8486 0.0 0
M  V30 5 C -1.9917 -2.5761 0.0 0
M  V30 6 C 0.3935 -3.7926 0.0 0
M  V30 7 C 1.8247 -3.3274 0.0 0
M  V30 8 C 3.1247 -1.0853 0.0 0
M  V30 9 C -2.755 -3.8522 0.0 0
M  V30 10 C -2.755 -1.2522 0.0 0
M  V30 11 C 3.1008 -4.055 0.0 0
M  V30 12 C 4.4008 -1.8128 0.0 0
M  V30 13 C -4.2816 -3.8284 0.0 0
M  V30 14 C -4.2816 -1.2284 0.0 0
M  V30 15 C 4.377 -3.2917 0.0 0
M  V30 16 C -5.0449 -2.5045 0.0 0
M  V30 17 C -6.5714 -2.4807 0.0 0 CFG=2
M  V30 18 C -7.3467 -1.1568 0.0 0
M  V30 19 C -7.3467 -3.7568 0.0 0
M  V30 20 O -8.8733 -1.133 0.0 0
M  V30 21 O -6.6072 0.1669 0.0 0
M  V30 END ATOM
M  V30 BEGIN BOND
M  V30 1 2 1 2
M  V30 2 1 2 3
M  V30 3 1 2 4
M  V30 4 1 3 5
M  V30 5 1 3 6
M  V30 6 2 4 7
M  V30 7 1 4 8
M  V30 8 2 5 9
M  V30 9 1 5 10
M  V30 10 1 7 11
M  V30 11 2 8 12
M  V30 12 1 9 13
M  V30 13 2 10 14
M  V30 14 2 11 15
M  V30 15 2 13 16
M  V30 16 1 16 17
M  V30 17 1 17 18
M  V30 18 1 17 19 CFG=1
M  V30 19 2 18 20
M  V30 20 1 18 21
M  V30 21 1 6 7
M  V30 22 1 12 15
M  V30 23 1 14 16
M  V30 END BOND
M  V30 BEGIN COLLECTION
M  V30 MDLV30/STERAC1 ATOMS=(1 17)
M  V30 END COLLECTION
M  V30 END CTAB
M  END
>  <SMILES>
CC(C(O)=O)C1=CC=C(C=C1)N1CC2=CC=CC=C2C1=O

>  <INCHI_IDENTIFIER>
InChI=1S/C17H15NO3/c1-11(17(20)21)12-6-8-14(9-7-12)18-10-13-4-2-3-5-15(13)16(18)19/h2-9,11H,10H2,1H3,(H,20,21)

>  <INCHI_KEY>
RJMIEHBSYVWVIN-UHFFFAOYSA-N

>  <FORMULA>
C17H15NO3

>  <MOLECULAR_WEIGHT>
281.3059

>  <DRUGBANK_ID>
DB08951

>  <DRUG_GROUPS>
withdrawn

>  <GENERIC_NAME>
Indoprofen

>  <SYNONYMS>
Indoprofen; indoprofeno

$$$$
Compound 25
Actelion Java MolfileCreator 2.0

  0  0  0  0  0  0              0 V3000
M  V30 BEGIN CTAB
M  V30 COUNTS 18 19 0 0 0
M  V30 BEGIN ATOM
M  V30 1 O 0.0 0.0 0.0 0
M  V30 2 C -1.322 0.7622 0.0 0
M  V30 3 C 1.2744 0.7622 0.0 0
M  V30 4 C -2.6441 0.0357 0.0 0
M  V30 5 C -1.3458 2.2868 0.0 0
M  V30 6 C 2.5488 0.0357 0.0 0 CFG=1
M  V30 7 C -3.9661 0.7979 0.0 0
M  V30 8 C -2.9776 -1.4054 0.0 0
M  V30 9 C -2.6679 3.0609 0.0 0
M  V30 10 O 2.525 -1.4411 0.0 0
M  V30 11 C 3.8232 0.7979 0.0 0
M  V30 12 C -3.9899 2.3225 0.0 0
M  V30 13 C -5.0976 -0.1786 0.0 0
M  V30 14 C -4.4902 -1.5364 0.0 0
M  V30 15 N 5.0976 0.0714 0.0 0
M  V30 16 C 6.372 0.8456 0.0 0
M  V30 17 C 7.6464 0.1191 0.0 0
M  V30 18 C 6.3482 2.3701 0.0 0
M  V30 END ATOM
M  V30 BEGIN BOND
M  V30 1 1 1 2
M  V30 2 1 1 3
M  V30 3 2 2 4
M  V30 4 1 2 5
M  V30 5 1 3 6
M  V30 6 1 4 7
M  V30 7 1 4 8
M  V30 8 2 5 9
M  V30 9 1 6 10 CFG=3
M  V30 10 1 6 11
M  V30 11 2 7 12
M  V30 12 1 7 13
M  V30 13 2 8 14
M  V30 14 1 11 15
M  V30 15 1 15 16
M  V30 16 1 16 17
M  V30 17 1 16 18
M  V30 18 1 9 12
M  V30 19 1 13 14
M  V30 END BOND
M  V30 BEGIN COLLECTION
M  V30 MDLV30/STERAC1 ATOMS=(1 6)
M  V30 END COLLECTION
M  V30 END CTAB
M  END
>  <SMILES>
CC(C)NCC(O)COC1=CC=CC2=C1C=CC2

>  <INCHI_IDENTIFIER>
InChI=1S/C15H21NO2/c1-11(2)16-9-13(17)10-18-15-8-4-6-12-5-3-7-14(12)15/h3-4,6-8,11,13,16-17H,5,9-10H2,1-2H3

>  <INCHI_KEY>
MPGBPFMOOXKQRX-UHFFFAOYSA-N

>  <FORMULA>
C15H21NO2

>  <MOLECULAR_WEIGHT>
247.3327

>  <DRUGBANK_ID>
DB08952

>  <DRUG_GROUPS>
withdrawn

>  <GENERIC_NAME>
Indenolol

>  <SYNONYMS>


$$$$
Compound 26
Actelion Java MolfileCreator 2.0

  0  0  0  0  0  0              0 V3000
M  V30 BEGIN CTAB
M  V30 COUNTS 16 16 0 0 0
M  V30 BEGIN ATOM
M  V30 1 O 0.0 0.0 0.0 0
M  V30 2 C -0.0236 1.5149 0.0 0
M  V30 3 N 1.2427 2.2843 0.0 0
M  V30 4 C -1.3374 2.2843 0.0 0 CFG=1
M  V30 5 O 2.5091 1.5623 0.0 0
M  V30 6 C -2.6512 1.5623 0.0 0
M  V30 7 C -1.3611 3.7992 0.0 0
M  V30 8 C -3.9649 2.3316 0.0 0
M  V30 9 C -2.6748 0.0946 0.0 0
M  V30 10 C -5.2787 1.6096 0.0 0
M  V30 11 C -3.9886 -0.6272 0.0 0
M  V30 12 C -5.3024 0.142 0.0 0
M  V30 13 C -6.6162 -0.5799 0.0 0
M  V30 14 C -7.9299 0.1775 0.0 0
M  V30 15 C -9.2437 -0.5444 0.0 0
M  V30 16 C -7.9536 1.6925 0.0 0
M  V30 END ATOM
M  V30 BEGIN BOND
M  V30 1 2 1 2
M  V30 2 1 2 3
M  V30 3 1 2 4
M  V30 4 1 3 5
M  V30 5 1 4 6
M  V30 6 1 4 7 CFG=1
M  V30 7 2 6 8
M  V30 8 1 6 9
M  V30 9 1 8 10
M  V30 10 2 9 11
M  V30 11 2 10 12
M  V30 12 1 12 13
M  V30 13 1 13 14
M  V30 14 1 14 15
M  V30 15 1 14 16
M  V30 16 1 11 12
M  V30 END BOND
M  V30 BEGIN COLLECTION
M  V30 MDLV30/STERAC1 ATOMS=(1 4)
M  V30 END COLLECTION
M  V30 END CTAB
M  END
>  <SMILES>
CC(C)CC1=CC=C(C=C1)C(C)C(=O)NO

>  <INCHI_IDENTIFIER>
InChI=1S/C13H19NO2/c1-9(2)8-11-4-6-12(7-5-11)10(3)13(15)14-16/h4-7,9-10,16H,8H2,1-3H3,(H,14,15)

>  <INCHI_KEY>
BYPIURIATSUHDW-UHFFFAOYSA-N

>  <FORMULA>
C13H19NO2

>  <MOLECULAR_WEIGHT>
221.2955

>  <DRUGBANK_ID>
DB08955

>  <DRUG_GROUPS>
withdrawn

>  <GENERIC_NAME>
Ibuproxam

>  <SYNONYMS>
Ibuproxam; Ibuproxamum; p-Isobutylhydratropohydroxamic acid

$$$$
Compound 27
Actelion Java MolfileCreator 2.0

  0  0  0  0  0  0              0 V3000
M  V30 BEGIN CTAB
M  V30 COUNTS 30 31 0 0 0
M  V30 BEGIN ATOM
M  V30 1 O 0.0 0.0 0.0 0
M  V30 2 C -0.0237 -1.4729 0.0 0
M  V30 3 C 1.2472 -2.2094 0.0 0
M  V30 4 C -1.3422 -2.2094 0.0 0
M  V30 5 O 2.5182 -1.4373 0.0 0
M  V30 6 C 1.2235 -3.6824 0.0 0
M  V30 7 C -1.366 -3.6824 0.0 0
M  V30 8 C -0.095 -4.407 0.0 0
M  V30 9 C -2.6845 -4.407 0.0 0
M  V30 10 O -2.7083 -5.8799 0.0 0
M  V30 11 C -4.0031 -3.6467 0.0 0
M  V30 12 N -5.3216 -4.3713 0.0 0
M  V30 13 C -6.6402 -3.6111 0.0 0
M  V30 14 C -7.9587 -4.3357 0.0 0
M  V30 15 C -9.2772 -3.5754 0.0 0
M  V30 16 C -10.5958 -4.3 0.0 0
M  V30 17 C -11.9143 -3.5398 0.0 0
M  V30 18 C -13.2329 -4.2644 0.0 0
M  V30 19 N -14.5514 -3.5042 0.0 0
M  V30 20 C -15.8699 -4.2288 0.0 0
M  V30 21 C -17.1885 -3.4685 0.0 0
M  V30 22 O -17.2122 -1.9481 0.0 0
M  V30 23 C -18.507 -4.1931 0.0 0
M  V30 24 C -18.5308 -5.6661 0.0 0
M  V30 25 C -19.8255 -3.421 0.0 0
M  V30 26 C -19.8493 -6.3907 0.0 0
M  V30 27 C -21.1441 -4.1456 0.0 0
M  V30 28 O -19.8731 -7.8637 0.0 0
M  V30 29 C -21.1678 -5.6186 0.0 0
M  V30 30 O -22.4864 -6.3432 0.0 0
M  V30 END ATOM
M  V30 BEGIN BOND
M  V30 1 1 1 2
M  V30 2 2 2 3
M  V30 3 1 2 4
M  V30 4 1 3 5
M  V30 5 1 3 6
M  V30 6 2 4 7
M  V30 7 2 6 8
M  V30 8 1 7 9
M  V30 9 1 9 10
M  V30 10 1 9 11
M  V30 11 1 11 12
M  V30 12 1 12 13
M  V30 13 1 13 14
M  V30 14 1 14 15
M  V30 15 1 15 16
M  V30 16 1 16 17
M  V30 17 1 17 18
M  V30 18 1 18 19
M  V30 19 1 19 20
M  V30 20 1 20 21
M  V30 21 1 21 22
M  V30 22 1 21 23
M  V30 23 2 23 24
M  V30 24 1 23 25
M  V30 25 1 24 26
M  V30 26 2 25 27
M  V30 27 1 26 28
M  V30 28 2 26 29
M  V30 29 1 29 30
M  V30 30 1 7 8
M  V30 31 1 27 29
M  V30 END BOND
M  V30 END CTAB
M  END
>  <SMILES>
OC(CNCCCCCCNCC(O)C1=CC(O)=C(O)C=C1)C1=CC(O)=C(O)C=C1

>  <INCHI_IDENTIFIER>
InChI=1S/C22H32N2O6/c25-17-7-5-15(11-19(17)27)21(29)13-23-9-3-1-2-4-10-24-14-22(30)16-6-8-18(26)20(28)12-16/h5-8,11-12,21-30H,1-4,9-10,13-14H2

>  <INCHI_KEY>
OXLZNBCNGJWPRV-UHFFFAOYSA-N

>  <FORMULA>
C22H32N2O6

>  <MOLECULAR_WEIGHT>
420.4993

>  <DRUGBANK_ID>
DB08957

>  <DRUG_GROUPS>
experimental; withdrawn

>  <GENERIC_NAME>
Hexoprenaline

>  <SYNONYMS>


$$$$
Compound 28
Actelion Java MolfileCreator 2.0

  0  0  0  0  0  0              0 V3000
M  V30 BEGIN CTAB
M  V30 COUNTS 28 30 0 0 0
M  V30 BEGIN ATOM
M  V30 1 Cl 0.0 0.0 0.0 0
M  V30 2 C -0.0238 1.5028 0.0 0
M  V30 3 C -1.3358 2.2661 0.0 0
M  V30 4 C 1.2404 2.2661 0.0 0
M  V30 5 C -1.3596 3.7928 0.0 0
M  V30 6 C -2.6478 1.5505 0.0 0
M  V30 7 C 1.2165 3.7689 0.0 0
M  V30 8 N -2.6716 4.5561 0.0 0
M  V30 9 C -0.0954 4.5561 0.0 0
M  V30 10 N -3.9478 2.3138 0.0 0
M  V30 11 C -2.6955 6.0589 0.0 0
M  V30 12 C -5.2598 1.5982 0.0 0
M  V30 13 C -3.9717 3.8405 0.0 0
M  V30 14 O -3.9955 6.8342 0.0 0
M  V30 15 C -1.4312 6.8342 0.0 0
M  V30 16 C -6.5718 2.3615 0.0 0
M  V30 17 C -0.1669 6.0947 0.0 0
M  V30 18 C -1.4551 8.337 0.0 0
M  V30 19 O -7.8838 1.6459 0.0 0
M  V30 20 N -6.5956 3.8643 0.0 0
M  V30 21 C 1.0972 6.87 0.0 0
M  V30 22 C -0.1908 9.1003 0.0 0
M  V30 23 C -7.9076 4.6396 0.0 0
M  V30 24 C -5.3314 4.6396 0.0 0
M  V30 25 C 1.0734 8.3728 0.0 0
M  V30 26 C -7.9315 6.1424 0.0 0
M  V30 27 C -5.3552 6.1424 0.0 0
M  V30 28 O -6.6672 6.9177 0.0 0
M  V30 END ATOM
M  V30 BEGIN BOND
M  V30 1 1 1 2
M  V30 2 2 2 3
M  V30 3 1 2 4
M  V30 4 1 3 5
M  V30 5 1 3 6
M  V30 6 2 4 7
M  V30 7 1 5 8
M  V30 8 2 5 9
M  V30 9 1 6 10
M  V30 10 1 8 11
M  V30 11 1 10 12
M  V30 12 1 10 13
M  V30 13 2 11 14
M  V30 14 1 11 15
M  V30 15 1 12 16
M  V30 16 2 15 17
M  V30 17 1 15 18
M  V30 18 2 16 19
M  V30 19 1 16 20
M  V30 20 1 17 21
M  V30 21 2 18 22
M  V30 22 1 20 23
M  V30 23 1 20 24
M  V30 24 2 21 25
M  V30 25 1 23 26
M  V30 26 1 24 27
M  V30 27 1 26 28
M  V30 28 1 7 9
M  V30 29 1 22 25
M  V30 30 1 27 28
M  V30 END BOND
M  V30 END CTAB
M  END
>  <SMILES>
CN(CC(=O)N1CCOCC1)CC1=C(Cl)C=CC=C1NC(=O)C1=CC=CC=C1

>  <INCHI_IDENTIFIER>
InChI=1S/C21H24ClN3O3/c1-24(15-20(26)25-10-12-28-13-11-25)14-17-18(22)8-5-9-19(17)23-21(27)16-6-3-2-4-7-16/h2-9H,10-15H2,1H3,(H,23,27)

>  <INCHI_KEY>
KSNNEUZOAFRTDS-UHFFFAOYSA-N

>  <FORMULA>
C21H24ClN3O3

>  <MOLECULAR_WEIGHT>
401.887

>  <DRUGBANK_ID>
DB08968

>  <DRUG_GROUPS>
experimental; withdrawn

>  <GENERIC_NAME>
Fominoben

>  <SYNONYMS>
Fominoben; Fominobene; Fominobenum

$$$$
Compound 29
Actelion Java MolfileCreator 2.0

  0  0  0  0  0  0              0 V3000
M  V30 BEGIN CTAB
M  V30 COUNTS 11 10 0 0 0
M  V30 BEGIN ATOM
M  V30 1 F 0.0 0.0 0.0 0
M  V30 2 C 1.4804 0.0238 0.0 0
M  V30 3 F 1.4566 -1.4566 0.0 0
M  V30 4 F 1.4566 1.5521 0.0 0
M  V30 5 C 2.9609 0.0477 0.0 0
M  V30 6 O 3.6893 1.373 0.0 0
M  V30 7 C 5.1698 1.3969 0.0 0
M  V30 8 C 5.8981 2.7222 0.0 0
M  V30 9 F 6.6383 4.0474 0.0 0
M  V30 10 F 7.1756 1.9938 0.0 0
M  V30 11 F 4.5728 3.4982 0.0 0
M  V30 END ATOM
M  V30 BEGIN BOND
M  V30 1 1 1 2
M  V30 2 1 2 3
M  V30 3 1 2 4
M  V30 4 1 2 5
M  V30 5 1 5 6
M  V30 6 1 6 7
M  V30 7 1 7 8
M  V30 8 1 8 9
M  V30 9 1 8 10
M  V30 10 1 8 11
M  V30 END BOND
M  V30 END CTAB
M  END
>  <SMILES>
FC(F)(F)COCC(F)(F)F

>  <INCHI_IDENTIFIER>
InChI=1S/C4H4F6O/c5-3(6,7)1-11-2-4(8,9)10/h1-2H2

>  <INCHI_KEY>
KGPPDNUWZNWPSI-UHFFFAOYSA-N

>  <FORMULA>
C4H4F6O

>  <MOLECULAR_WEIGHT>
182.0644

>  <DRUGBANK_ID>
DB08969

>  <DRUG_GROUPS>
withdrawn

>  <GENERIC_NAME>
Flurothyl

>  <SYNONYMS>
Flurotyl

$$$$
Compound 30
Actelion Java MolfileCreator 2.0

  0  0  0  0  0  0              0 V3000
M  V30 BEGIN CTAB
M  V30 COUNTS 19 21 0 0 0
M  V30 BEGIN ATOM
M  V30 1 F 0.0 0.0 0.0 0
M  V30 2 C -0.0237 -1.4946 0.0 0
M  V30 3 C 1.2692 -2.2301 0.0 0
M  V30 4 C -1.3641 -2.2301 0.0 0
M  V30 5 C 1.2455 -3.7247 0.0 0
M  V30 6 C -1.3878 -3.7247 0.0 0
M  V30 7 C 2.5385 -4.4483 0.0 0
M  V30 8 C -0.0948 -4.4483 0.0 0
M  V30 9 C -2.7283 -4.4483 0.0 0
M  V30 10 O 3.8315 -3.6654 0.0 0
M  V30 11 C 2.5148 -5.943 0.0 0
M  V30 12 N -0.1186 -5.943 0.0 0
M  V30 13 C -2.752 -5.943 0.0 0
M  V30 14 C 3.8078 -6.6666 0.0 0
M  V30 15 C 1.1743 -6.6666 0.0 0
M  V30 16 C -1.459 -6.6666 0.0 0 CFG=2
M  V30 17 O 5.1008 -5.8837 0.0 0
M  V30 18 O 3.784 -8.1612 0.0 0
M  V30 19 C -1.4827 -8.1612 0.0 0
M  V30 END ATOM
M  V30 BEGIN BOND
M  V30 1 1 1 2
M  V30 2 2 2 3
M  V30 3 1 2 4
M  V30 4 1 3 5
M  V30 5 2 4 6
M  V30 6 1 5 7
M  V30 7 2 5 8
M  V30 8 1 6 9
M  V30 9 2 7 10
M  V30 10 1 7 11
M  V30 11 1 8 12
M  V30 12 1 9 13
M  V30 13 1 11 14
M  V30 14 2 11 15
M  V30 15 1 12 16
M  V30 16 2 14 17
M  V30 17 1 14 18
M  V30 18 1 16 19 CFG=1
M  V30 19 1 6 8
M  V30 20 1 12 15
M  V30 21 1 13 16
M  V30 END BOND
M  V30 BEGIN COLLECTION
M  V30 MDLV30/STERAC1 ATOMS=(1 16)
M  V30 END COLLECTION
M  V30 END CTAB
M  END
>  <SMILES>
CC1CCC2=CC(F)=CC3=C2N1C=C(C(O)=O)C3=O

>  <INCHI_IDENTIFIER>
InChI=1S/C14H12FNO3/c1-7-2-3-8-4-9(15)5-10-12(8)16(7)6-11(13(10)17)14(18)19/h4-7H,2-3H2,1H3,(H,18,19)

>  <INCHI_KEY>
DPSPPJIUMHPXMA-UHFFFAOYSA-N

>  <FORMULA>
C14H12FNO3

>  <MOLECULAR_WEIGHT>
261.2484

>  <DRUGBANK_ID>
DB08972

>  <DRUG_GROUPS>
withdrawn

>  <GENERIC_NAME>
Flumequine

>  <SYNONYMS>
Flumequine

$$$$
Compound 31
Actelion Java MolfileCreator 2.0

  0  0  0  0  0  0              0 V3000
M  V30 BEGIN CTAB
M  V30 COUNTS 23 25 0 0 0
M  V30 BEGIN ATOM
M  V30 1 F 0.0 0.0 0.0 0
M  V30 2 C 1.3155 0.8237 0.0 0
M  V30 3 C 2.5696 0.0983 0.0 0
M  V30 4 C 1.2909 2.3975 0.0 0
M  V30 5 C 3.8729 0.8729 0.0 0
M  V30 6 C 2.545 3.1229 0.0 0
M  V30 7 C 3.8483 2.4466 0.0 0
M  V30 8 C 5.1024 3.1721 0.0 0
M  V30 9 O 5.0778 4.7458 0.0 0
M  V30 10 C 6.4056 2.4958 0.0 0
M  V30 11 C 7.6597 3.2212 0.0 0
M  V30 12 C 6.381 0.9713 0.0 0
M  V30 13 C 8.963 2.545 0.0 0
M  V30 14 C 7.6351 0.2458 0.0 0
M  V30 15 N 10.3277 2.9999 0.0 0
M  V30 16 C 8.9384 1.0204 0.0 0
M  V30 17 C 11.2007 1.795 0.0 0
M  V30 18 N 10.3031 0.5655 0.0 0
M  V30 19 N 12.6761 1.8688 0.0 0
M  V30 20 C 13.4015 3.1721 0.0 0
M  V30 21 O 12.6269 4.5368 0.0 0
M  V30 22 O 14.926 3.1966 0.0 0
M  V30 23 C 15.6515 4.5614 0.0 0
M  V30 END ATOM
M  V30 BEGIN BOND
M  V30 1 1 1 2
M  V30 2 2 2 3
M  V30 3 1 2 4
M  V30 4 1 3 5
M  V30 5 2 4 6
M  V30 6 2 5 7
M  V30 7 1 7 8
M  V30 8 2 8 9
M  V30 9 1 8 10
M  V30 10 2 10 11
M  V30 11 1 10 12
M  V30 12 1 11 13
M  V30 13 2 12 14
M  V30 14 1 13 15
M  V30 15 2 13 16
M  V30 16 2 15 17
M  V30 17 1 16 18
M  V30 18 1 17 19
M  V30 19 1 19 20
M  V30 20 2 20 21
M  V30 21 1 20 22
M  V30 22 1 22 23
M  V30 23 1 6 7
M  V30 24 1 14 16
M  V30 25 1 17 18
M  V30 END BOND
M  V30 END CTAB
M  END
>  <SMILES>
COC(=O)NC1=NC2=C(N1)C=CC(=C2)C(=O)C1=CC=C(F)C=C1

>  <INCHI_IDENTIFIER>
InChI=1S/C16H12FN3O3/c1-23-16(22)20-15-18-12-7-4-10(8-13(12)19-15)14(21)9-2-5-11(17)6-3-9/h2-8H,1H3,(H2,18,19,20,22)

>  <INCHI_KEY>
CPEUVMUXAHMANV-UHFFFAOYSA-N

>  <FORMULA>
C16H12FN3O3

>  <MOLECULAR_WEIGHT>
313.2832

>  <DRUGBANK_ID>
DB08974

>  <DRUG_GROUPS>
experimental; withdrawn

>  <GENERIC_NAME>
Flubendazole

>  <SYNONYMS>
(5-(4-fluorobenzoyl)-1H-benzimidazole-2-yl)carbamic acid methyl ester; Flubendazol; Flubendazole; Flubendazolum; methyl 5-(p-fluorobenzoyl)-2-benzimidazolecarbamate

$$$$
Compound 32
Actelion Java MolfileCreator 2.0

  0  0  0  0  0  0              0 V3000
M  V30 BEGIN CTAB
M  V30 COUNTS 23 26 0 0 0
M  V30 BEGIN ATOM
M  V30 1 O 0.0 0.0 0.0 0
M  V30 2 C -1.4653 0.3286 0.0 0
M  V30 3 O -2.4786 -0.7394 0.0 0
M  V30 4 C -1.9446 1.7528 0.0 0
M  V30 5 C -3.4099 2.0815 0.0 0
M  V30 6 C -3.8892 3.5057 0.0 0
M  V30 7 O -2.9306 4.6287 0.0 0
M  V30 8 C -5.3545 3.8344 0.0 0
M  V30 9 C -6.3678 2.7662 0.0 0
M  V30 10 C -5.8338 5.2586 0.0 0
M  V30 11 C -7.8331 3.0949 0.0 0
M  V30 12 C -7.2991 5.5873 0.0 0
M  V30 13 C -9.0519 2.2595 0.0 0
M  V30 14 C -8.3124 4.5191 0.0 0
M  V30 15 C -10.2707 3.1634 0.0 0
M  V30 16 C -9.23 0.8216 0.0 0
M  V30 17 C -9.8051 4.5465 0.0 0
M  V30 18 C -11.736 2.8895 0.0 0
M  V30 19 C -10.5994 0.2601 0.0 0
M  V30 20 C -10.8185 5.6694 0.0 0
M  V30 21 C -11.8182 1.164 0.0 0
M  V30 22 C -12.7494 4.0124 0.0 0
M  V30 23 C -12.2838 5.3955 0.0 0
M  V30 END ATOM
M  V30 BEGIN BOND
M  V30 1 2 1 2
M  V30 2 1 2 3
M  V30 3 1 2 4
M  V30 4 1 4 5
M  V30 5 1 5 6
M  V30 6 2 6 7
M  V30 7 1 6 8
M  V30 8 2 8 9
M  V30 9 1 8 10
M  V30 10 1 9 11
M  V30 11 2 10 12
M  V30 12 1 11 13
M  V30 13 2 11 14
M  V30 14 1 13 15
M  V30 15 2 13 16
M  V30 16 1 14 17
M  V30 17 1 15 18
M  V30 18 1 16 19
M  V30 19 1 17 20
M  V30 20 1 18 21
M  V30 21 2 18 22
M  V30 22 2 20 23
M  V30 23 1 12 14
M  V30 24 2 15 17
M  V30 25 2 19 21
M  V30 26 1 22 23
M  V30 END BOND
M  V30 END CTAB
M  END
>  <SMILES>
OC(=O)CCC(=O)C1=CC2=C(C=C1)C1=C3C2=CC=CC3=CC=C1

>  <INCHI_IDENTIFIER>
InChI=1S/C20H14O3/c21-18(9-10-19(22)23)13-7-8-14-15-5-1-3-12-4-2-6-16(20(12)15)17(14)11-13/h1-8,11H,9-10H2,(H,22,23)

>  <INCHI_KEY>
QOBAOSCOLAGPKI-UHFFFAOYSA-N

>  <FORMULA>
C20H14O3

>  <MOLECULAR_WEIGHT>
302.329

>  <DRUGBANK_ID>
DB08975

>  <DRUG_GROUPS>
withdrawn

>  <GENERIC_NAME>
Florantyrone

>  <SYNONYMS>


$$$$
Compound 33
Actelion Java MolfileCreator 2.0

  0  0  0  0  0  0              0 V3000
M  V30 BEGIN CTAB
M  V30 COUNTS 36 40 0 0 0
M  V30 BEGIN ATOM
M  V30 1 O 0.0 0.0 0.0 0
M  V30 2 C -0.0261 1.4901 0.0 0
M  V30 3 O -1.3463 2.2744 0.0 0
M  V30 4 C 1.3071 0.7973 0.0 0 CFG=1
M  V30 5 C -2.9934 2.3006 0.0 0 CFG=2
M  V30 6 C 1.3463 -0.6405 0.0 0
M  V30 7 C 2.2875 1.9346 0.0 0
M  V30 8 C -3.66 3.647 0.0 0
M  V30 9 C -3.66 1.0065 0.0 0
M  V30 10 C 2.6143 -1.294 0.0 0
M  V30 11 C 0.0915 -1.3986 0.0 0
M  V30 12 O 3.6862 1.647 0.0 0
M  V30 13 C -5.111 3.9999 0.0 0 CFG=1
M  V30 14 C -5.111 0.7058 0.0 0 CFG=2
M  V30 15 C 2.6535 -2.7319 0.0 0
M  V30 16 C 0.1307 -2.8365 0.0 0
M  V30 17 N -5.5554 2.379 0.0 0 CHG=1
M  V30 18 C -6.2744 3.1241 0.0 0
M  V30 19 C -6.2744 1.6339 0.0 0
M  V30 20 C 1.3986 -3.4901 0.0 0
M  V30 21 C -4.4966 3.4901 0.0 0
M  V30 22 C -4.1306 1.9346 0.0 0
M  V30 23 C -4.9018 5.1633 0.0 0
M  V30 24 O -3.8561 6.1829 0.0 0
M  V30 25 C -6.3267 5.6208 0.0 0
M  V30 26 C -7.4247 4.6535 0.0 0
M  V30 27 C -6.6796 7.0717 0.0 0
M  V30 28 C -8.8495 5.111 0.0 0
M  V30 29 C -8.1044 7.5292 0.0 0
M  V30 30 C -9.2024 6.5619 0.0 0
M  V30 31 C -10.6272 7.0195 0.0 0
M  V30 32 C -11.7253 6.0521 0.0 0
M  V30 33 C -10.9802 8.4704 0.0 0
M  V30 34 C -13.1501 6.5097 0.0 0
M  V30 35 C -12.405 8.9279 0.0 0
M  V30 36 C -13.503 7.9606 0.0 0
M  V30 END ATOM
M  V30 BEGIN BOND
M  V30 1 2 1 2
M  V30 2 1 2 3
M  V30 3 1 2 4
M  V30 4 1 5 3 CFG=1
M  V30 5 1 4 6
M  V30 6 1 4 7 CFG=3
M  V30 7 1 5 8
M  V30 8 1 5 9
M  V30 9 2 6 10
M  V30 10 1 6 11
M  V30 11 1 7 12
M  V30 12 1 8 13
M  V30 13 1 9 14
M  V30 14 1 10 15
M  V30 15 2 11 16
M  V30 16 1 13 17 CFG=3
M  V30 17 1 13 18
M  V30 18 1 14 19
M  V30 19 2 15 20
M  V30 20 1 17 21
M  V30 21 1 17 22
M  V30 22 1 21 23
M  V30 23 2 23 24
M  V30 24 1 23 25
M  V30 25 2 25 26
M  V30 26 1 25 27
M  V30 27 1 26 28
M  V30 28 2 27 29
M  V30 29 2 28 30
M  V30 30 1 30 31
M  V30 31 2 31 32
M  V30 32 1 31 33
M  V30 33 1 32 34
M  V30 34 2 33 35
M  V30 35 2 34 36
M  V30 36 1 14 17 CFG=3
M  V30 37 1 16 20
M  V30 38 1 18 19
M  V30 39 1 29 30
M  V30 40 1 35 36
M  V30 END BOND
M  V30 BEGIN COLLECTION
M  V30 MDLV30/STEABS ATOMS=(3 5 13 14)
M  V30 MDLV30/STERAC1 ATOMS=(1 4)
M  V30 END COLLECTION
M  V30 END CTAB
M  END
>  <SMILES>
[H][C@](CO)(C(=O)O[C@]1([H])C[C@]2([H])CC[C@]([H])(C1)[N+]2(C)CC(=O)C1=CC=C(C=C1)C1=CC=CC=C1)C1=CC=CC=C1

>  <INCHI_IDENTIFIER>
InChI=1S/C31H34NO4/c1-32(20-30(34)25-14-12-23(13-15-25)22-8-4-2-5-9-22)26-16-17-27(32)19-28(18-26)36-31(35)29(21-33)24-10-6-3-7-11-24/h2-15,26-29,33H,16-21H2,1H3/q+1/t26-,27+,28+,29-,32?/m1/s1

>  <INCHI_KEY>
CSYZZFNWCDOVIM-OCTNZTSRSA-N

>  <FORMULA>
C31H34NO4

>  <MOLECULAR_WEIGHT>
484.615

>  <DRUGBANK_ID>
DB08978

>  <DRUG_GROUPS>
withdrawn

>  <GENERIC_NAME>
Fentonium

>  <SYNONYMS>


$$$$
Compound 34
Actelion Java MolfileCreator 2.0

  0  0  0  0  0  0              0 V3000
M  V30 BEGIN CTAB
M  V30 COUNTS 24 26 0 0 0
M  V30 BEGIN ATOM
M  V30 1 N 0.0 0.0 0.0 0
M  V30 2 C -1.3212 0.7736 0.0 0 CFG=2
M  V30 3 C 1.2736 0.7736 0.0 0
M  V30 4 C -2.6424 0.0357 0.0 0
M  V30 5 C -1.345 2.2972 0.0 0
M  V30 6 C 2.5472 0.0357 0.0 0
M  V30 7 C -2.6662 -1.4402 0.0 0
M  V30 8 C -3.9636 0.8093 0.0 0
M  V30 9 C 3.8208 0.8093 0.0 0
M  V30 10 C -3.9874 -2.1782 0.0 0
M  V30 11 C -5.2848 0.0714 0.0 0
M  V30 12 C 5.0944 0.0714 0.0 0
M  V30 13 C 3.797 2.3329 0.0 0
M  V30 14 C -5.3087 -1.4045 0.0 0
M  V30 15 C 6.368 0.8451 0.0 0
M  V30 16 C 5.0706 -1.4045 0.0 0
M  V30 17 C 2.4758 3.0947 0.0 0
M  V30 18 C 5.0706 3.0947 0.0 0
M  V30 19 C 7.6416 0.1071 0.0 0
M  V30 20 C 6.3442 -2.1425 0.0 0
M  V30 21 C 2.452 4.6183 0.0 0
M  V30 22 C 5.0468 4.6183 0.0 0
M  V30 23 C 7.6178 -1.3688 0.0 0
M  V30 24 C 3.7256 5.3801 0.0 0
M  V30 END ATOM
M  V30 BEGIN BOND
M  V30 1 1 2 1 CFG=3
M  V30 2 1 1 3
M  V30 3 1 2 4
M  V30 4 1 2 5
M  V30 5 1 3 6
M  V30 6 2 4 7
M  V30 7 1 4 8
M  V30 8 1 6 9
M  V30 9 1 7 10
M  V30 10 2 8 11
M  V30 11 1 9 12
M  V30 12 1 9 13
M  V30 13 2 10 14
M  V30 14 2 12 15
M  V30 15 1 12 16
M  V30 16 2 13 17
M  V30 17 1 13 18
M  V30 18 1 15 19
M  V30 19 2 16 20
M  V30 20 1 17 21
M  V30 21 2 18 22
M  V30 22 2 19 23
M  V30 23 2 21 24
M  V30 24 1 11 14
M  V30 25 1 20 23
M  V30 26 1 22 24
M  V30 END BOND
M  V30 BEGIN COLLECTION
M  V30 MDLV30/STERAC1 ATOMS=(1 2)
M  V30 END COLLECTION
M  V30 END CTAB
M  END
>  <SMILES>
CC(NCCC(C1=CC=CC=C1)C1=CC=CC=C1)C1=CC=CC=C1

>  <INCHI_IDENTIFIER>
InChI=1S/C23H25N/c1-19(20-11-5-2-6-12-20)24-18-17-23(21-13-7-3-8-14-21)22-15-9-4-10-16-22/h2-16,19,23-24H,17-18H2,1H3

>  <INCHI_KEY>
NMKSAYKQLCHXDK-UHFFFAOYSA-N

>  <FORMULA>
C23H25N

>  <MOLECULAR_WEIGHT>
315.4513

>  <DRUGBANK_ID>
DB08980

>  <DRUG_GROUPS>
withdrawn

>  <GENERIC_NAME>
Fendiline

>  <SYNONYMS>


$$$$
Compound 35
Actelion Java MolfileCreator 2.0

  0  0  0  0  0  0              0 V3000
M  V30 BEGIN CTAB
M  V30 COUNTS 13 13 0 0 0
M  V30 BEGIN ATOM
M  V30 1 O 0.0 0.0 0.0 0
M  V30 2 C -0.0235 1.5078 0.0 0
M  V30 3 C -1.3311 2.2617 0.0 0
M  V30 4 C 1.2368 2.2617 0.0 0
M  V30 5 C -1.3546 3.7695 0.0 0
M  V30 6 C 1.2133 3.7695 0.0 0
M  V30 7 C -0.0942 4.5234 0.0 0
M  V30 8 C -2.6622 4.5234 0.0 0 CFG=1
M  V30 9 O -2.6857 6.0312 0.0 0
M  V30 10 C -3.9697 3.8048 0.0 0
M  V30 11 N -5.2773 4.5587 0.0 0
M  V30 12 C -6.5848 3.8402 0.0 0
M  V30 13 C -7.8924 4.5941 0.0 0
M  V30 END ATOM
M  V30 BEGIN BOND
M  V30 1 1 1 2
M  V30 2 2 2 3
M  V30 3 1 2 4
M  V30 4 1 3 5
M  V30 5 2 4 6
M  V30 6 2 5 7
M  V30 7 1 5 8
M  V30 8 1 8 9 CFG=3
M  V30 9 1 8 10
M  V30 10 1 10 11
M  V30 11 1 11 12
M  V30 12 1 12 13
M  V30 13 1 6 7
M  V30 END BOND
M  V30 BEGIN COLLECTION
M  V30 MDLV30/STERAC1 ATOMS=(1 8)
M  V30 END COLLECTION
M  V30 END CTAB
M  END
>  <SMILES>
CCNCC(O)C1=CC(O)=CC=C1

>  <INCHI_IDENTIFIER>
InChI=1S/C10H15NO2/c1-2-11-7-10(13)8-4-3-5-9(12)6-8/h3-6,10-13H,2,7H2,1H3

>  <INCHI_KEY>
SQVIAVUSQAWMKL-UHFFFAOYSA-N

>  <FORMULA>
C10H15NO2

>  <MOLECULAR_WEIGHT>
181.2316

>  <DRUGBANK_ID>
DB08985

>  <DRUG_GROUPS>
withdrawn

>  <GENERIC_NAME>
Etilefrine

>  <SYNONYMS>
Etilefrina

$$$$
Compound 36
Actelion Java MolfileCreator 2.0

  0  0  0  0  0  0              0 V3000
M  V30 BEGIN CTAB
M  V30 COUNTS 16 16 0 0 0
M  V30 BEGIN ATOM
M  V30 1 O 0.0 0.0 0.0 0
M  V30 2 C 1.2683 0.7586 0.0 0
M  V30 3 N 2.5367 0.0237 0.0 0
M  V30 4 C 1.2446 2.2759 0.0 0
M  V30 5 C 3.805 0.7823 0.0 0
M  V30 6 C 2.513 -1.4461 0.0 0
M  V30 7 C -0.0711 3.0345 0.0 0
M  V30 8 C 2.513 3.0345 0.0 0
M  V30 9 C 3.7813 2.2996 0.0 0
M  V30 10 C 1.1972 -2.1811 0.0 0
M  V30 11 C -0.0948 4.5518 0.0 0
M  V30 12 C 2.4893 4.5518 0.0 0
M  V30 13 O -1.4106 5.3105 0.0 0
M  V30 14 C 1.1735 5.3105 0.0 0
M  V30 15 C -2.7263 4.5874 0.0 0
M  V30 16 O 1.1498 6.8278 0.0 0
M  V30 END ATOM
M  V30 BEGIN BOND
M  V30 1 2 1 2
M  V30 2 1 2 3
M  V30 3 1 2 4
M  V30 4 1 3 5
M  V30 5 1 3 6
M  V30 6 2 4 7
M  V30 7 1 4 8
M  V30 8 1 5 9
M  V30 9 1 6 10
M  V30 10 1 7 11
M  V30 11 2 8 12
M  V30 12 1 11 13
M  V30 13 2 11 14
M  V30 14 1 13 15
M  V30 15 1 14 16
M  V30 16 1 12 14
M  V30 END BOND
M  V30 END CTAB
M  END
>  <SMILES>
CCN(CC)C(=O)C1=CC(OC)=C(O)C=C1

>  <INCHI_IDENTIFIER>
InChI=1S/C12H17NO3/c1-4-13(5-2)12(15)9-6-7-10(14)11(8-9)16-3/h6-8,14H,4-5H2,1-3H3

>  <INCHI_KEY>
BQJODPIMMWWMFC-UHFFFAOYSA-N

>  <FORMULA>
C12H17NO3

>  <MOLECULAR_WEIGHT>
223.2683

>  <DRUGBANK_ID>
DB08989

>  <DRUG_GROUPS>
withdrawn

>  <GENERIC_NAME>
Etamivan

>  <SYNONYMS>
Etamivan; etamiv√°n; √©tamivan; Etamivanum; Ethamivan

$$$$
Compound 37
Actelion Java MolfileCreator 2.0

  0  0  0  0  0  0              0 V3000
M  V30 BEGIN CTAB
M  V30 COUNTS 28 30 0 0 0
M  V30 BEGIN ATOM
M  V30 1 O 0.0 0.0 0.0 0
M  V30 2 C -1.3113 0.756 0.0 0
M  V30 3 C -2.6227 0.0354 0.0 0
M  V30 4 C -1.3349 2.2682 0.0 0
M  V30 5 C -2.6463 -1.4294 0.0 0
M  V30 6 C -3.934 0.7915 0.0 0
M  V30 7 C -0.0708 3.0361 0.0 0
M  V30 8 C -2.6463 3.0361 0.0 0
M  V30 9 C -3.9576 -2.1619 0.0 0
M  V30 10 C -5.2454 0.0708 0.0 0
M  V30 11 N -0.0945 4.5483 0.0 0
M  V30 12 C -5.269 -1.394 0.0 0
M  V30 13 C 1.1695 5.3044 0.0 0
M  V30 14 C -1.4058 5.3044 0.0 0
M  V30 15 C 1.1459 6.8166 0.0 0
M  V30 16 C -1.4294 6.8166 0.0 0
M  V30 17 N -0.1653 7.5727 0.0 0
M  V30 18 C -0.189 9.0849 0.0 0
M  V30 19 C -1.5003 9.841 0.0 0
M  V30 20 O -2.8117 9.1204 0.0 0
M  V30 21 C -1.524 11.3532 0.0 0
M  V30 22 C -2.8353 7.6554 0.0 0
M  V30 23 C -2.8353 12.1093 0.0 0
M  V30 24 C -0.2599 12.1093 0.0 0
M  V30 25 C -4.1467 6.9348 0.0 0
M  V30 26 C -2.8589 13.6215 0.0 0
M  V30 27 C -0.2835 13.6215 0.0 0
M  V30 28 C -1.5948 14.3894 0.0 0
M  V30 END ATOM
M  V30 BEGIN BOND
M  V30 1 2 1 2
M  V30 2 1 2 3
M  V30 3 1 2 4
M  V30 4 2 3 5
M  V30 5 1 3 6
M  V30 6 1 4 7
M  V30 7 1 4 8
M  V30 8 1 5 9
M  V30 9 2 6 10
M  V30 10 1 7 11
M  V30 11 2 9 12
M  V30 12 1 11 13
M  V30 13 1 11 14
M  V30 14 1 13 15
M  V30 15 1 14 16
M  V30 16 1 15 17
M  V30 17 1 17 18
M  V30 18 1 18 19
M  V30 19 1 19 20
M  V30 20 1 19 21
M  V30 21 1 20 22
M  V30 22 2 21 23
M  V30 23 1 21 24
M  V30 24 1 22 25
M  V30 25 1 23 26
M  V30 26 2 24 27
M  V30 27 2 26 28
M  V30 28 1 10 12
M  V30 29 1 16 17
M  V30 30 1 27 28
M  V30 END BOND
M  V30 END CTAB
M  END
>  <SMILES>
CCOC(CN1CCN(CC(C)C(=O)C2=CC=CC=C2)CC1)C1=CC=CC=C1

>  <INCHI_IDENTIFIER>
InChI=1S/C24H32N2O2/c1-3-28-23(21-10-6-4-7-11-21)19-26-16-14-25(15-17-26)18-20(2)24(27)22-12-8-5-9-13-22/h4-13,20,23H,3,14-19H2,1-2H3

>  <INCHI_KEY>
BSHWLCACYCVCJE-UHFFFAOYSA-N

>  <FORMULA>
C24H32N2O2

>  <MOLECULAR_WEIGHT>
380.532

>  <DRUGBANK_ID>
DB08990

>  <DRUG_GROUPS>
experimental; withdrawn

>  <GENERIC_NAME>
Eprazinone

>  <SYNONYMS>
eprazinona; Eprazinone; √âprazinone

$$$$
Compound 38
Actelion Java MolfileCreator 2.0

  0  0  0  0  0  0              0 V3000
M  V30 BEGIN CTAB
M  V30 COUNTS 24 26 0 0 0
M  V30 BEGIN ATOM
M  V30 1 O 0.0 0.0 0.0 0
M  V30 2 C -1.2393 0.9056 0.0 0
M  V30 3 C -0.4885 -1.4061 0.0 0
M  V30 4 N -2.4786 0.0476 0.0 0
M  V30 5 N -1.2631 2.4309 0.0 0
M  V30 6 C 0.3694 -2.5977 0.0 0
M  V30 7 C -2.0138 -1.3823 0.0 0
M  V30 8 C -2.5858 3.1936 0.0 0
M  V30 9 C 0.0119 3.1936 0.0 0
M  V30 10 C 1.8351 -2.419 0.0 0
M  V30 11 C -0.274 -3.9443 0.0 0
M  V30 12 C -2.9195 -2.5739 0.0 0
M  V30 13 C -2.6097 4.7189 0.0 0
M  V30 14 C -0.0119 4.7189 0.0 0
M  V30 15 C 2.6931 -3.6106 0.0 0
M  V30 16 C 0.5839 -5.136 0.0 0
M  V30 17 C -2.3237 -3.9205 0.0 0
M  V30 18 C -4.4329 -2.3952 0.0 0
M  V30 19 O -3.9324 5.4934 0.0 0
M  V30 20 O 1.2631 5.4934 0.0 0
M  V30 21 C 2.0496 -4.9572 0.0 0
M  V30 22 C -3.2293 -5.1121 0.0 0
M  V30 23 C -5.3385 -3.5868 0.0 0
M  V30 24 C -4.7427 -4.9334 0.0 0
M  V30 END ATOM
M  V30 BEGIN BOND
M  V30 1 1 1 2
M  V30 2 1 1 3
M  V30 3 2 2 4
M  V30 4 1 2 5
M  V30 5 1 3 6
M  V30 6 2 3 7
M  V30 7 1 5 8
M  V30 8 1 5 9
M  V30 9 2 6 10
M  V30 10 1 6 11
M  V30 11 1 7 12
M  V30 12 1 8 13
M  V30 13 1 9 14
M  V30 14 1 10 15
M  V30 15 2 11 16
M  V30 16 2 12 17
M  V30 17 1 12 18
M  V30 18 1 13 19
M  V30 19 1 14 20
M  V30 20 2 15 21
M  V30 21 1 17 22
M  V30 22 2 18 23
M  V30 23 2 22 24
M  V30 24 1 4 7
M  V30 25 1 16 21
M  V30 26 1 23 24
M  V30 END BOND
M  V30 END CTAB
M  END
>  <SMILES>
OCCN(CCO)C1=NC(=C(O1)C1=CC=CC=C1)C1=CC=CC=C1

>  <INCHI_IDENTIFIER>
InChI=1S/C19H20N2O3/c22-13-11-21(12-14-23)19-20-17(15-7-3-1-4-8-15)18(24-19)16-9-5-2-6-10-16/h1-10,22-23H,11-14H2

>  <INCHI_KEY>
UUCMDZWCRNZCOY-UHFFFAOYSA-N

>  <FORMULA>
C19H20N2O3

>  <MOLECULAR_WEIGHT>
324.3737

>  <DRUGBANK_ID>
DB08994

>  <DRUG_GROUPS>
experimental; withdrawn

>  <GENERIC_NAME>
Ditazole

>  <SYNONYMS>
2,2'-(4,5-Diphenyloxazol-2-ylazanediyl)diethanol

$$$$
Compound 39
Actelion Java MolfileCreator 2.0

  0  0  0  0  0  0              0 V3000
M  V30 BEGIN CTAB
M  V30 COUNTS 22 24 0 0 0
M  V30 BEGIN ATOM
M  V30 1 N 0.0 0.0 0.0 0
M  V30 2 C -0.0237 1.5215 0.0 0
M  V30 3 C 1.2719 -0.737 0.0 0
M  V30 4 C -1.3194 -0.737 0.0 0
M  V30 5 C 1.2481 2.2942 0.0 0
M  V30 6 C -1.3432 2.2942 0.0 0
M  V30 7 C 2.5438 0.0356 0.0 0
M  V30 8 C 1.2481 -2.211 0.0 0
M  V30 9 C -2.6389 0.0356 0.0 0
M  V30 10 C 1.2243 3.8157 0.0 0
M  V30 11 C 2.52 1.5691 0.0 0
M  V30 12 C -1.367 3.8157 0.0 0
M  V30 13 C 3.8157 -0.6894 0.0 0
M  V30 14 C 2.52 -2.948 0.0 0
M  V30 15 C -3.9584 -0.6894 0.0 0
M  V30 16 C -0.095 4.5765 0.0 0
M  V30 17 C 3.0074 2.9955 0.0 0
M  V30 18 C 3.9703 1.3313 0.0 0
M  V30 19 C 3.792 -2.1634 0.0 0
M  V30 20 N -5.2778 0.0832 0.0 0
M  V30 21 C -6.5973 -0.6419 0.0 0
M  V30 22 C -5.3016 1.6047 0.0 0
M  V30 END ATOM
M  V30 BEGIN BOND
M  V30 1 1 1 2
M  V30 2 1 1 3
M  V30 3 1 1 4
M  V30 4 2 2 5
M  V30 5 1 2 6
M  V30 6 2 3 7
M  V30 7 1 3 8
M  V30 8 1 4 9
M  V30 9 1 5 10
M  V30 10 1 5 11
M  V30 11 2 6 12
M  V30 12 1 7 13
M  V30 13 2 8 14
M  V30 14 1 9 15
M  V30 15 2 10 16
M  V30 16 1 11 17
M  V30 17 1 11 18
M  V30 18 2 13 19
M  V30 19 1 15 20
M  V30 20 1 20 21
M  V30 21 1 20 22
M  V30 22 1 7 11
M  V30 23 1 12 16
M  V30 24 1 14 19
M  V30 END BOND
M  V30 END CTAB
M  END
>  <SMILES>
CN(C)CCCN1C2=CC=CC=C2C(C)(C)C2=CC=CC=C12

>  <INCHI_IDENTIFIER>
InChI=1S/C20H26N2/c1-20(2)16-10-5-7-12-18(16)22(15-9-14-21(3)4)19-13-8-6-11-17(19)20/h5-8,10-13H,9,14-15H2,1-4H3

>  <INCHI_KEY>
RYQOGSFEJBUZBX-UHFFFAOYSA-N

>  <FORMULA>
C20H26N2

>  <MOLECULAR_WEIGHT>
294.4338

>  <DRUGBANK_ID>
DB08996

>  <DRUG_GROUPS>
experimental; withdrawn

>  <GENERIC_NAME>
Dimetacrine

>  <SYNONYMS>
3-(9,9-dimethylacridin-10-yl)-N,N-dimethyl-propan-1-amine; Dimetacrine; Istonil; Istonyl; Linostil; Miroistonil

$$$$
Compound 40
Actelion Java MolfileCreator 2.0

  0  0  0  0  0  0              0 V3000
M  V30 BEGIN CTAB
M  V30 COUNTS 27 30 0 0 0
M  V30 BEGIN ATOM
M  V30 1 O 0.0 0.0 0.0 0
M  V30 2 C -0.029 -1.4231 0.0 0
M  V30 3 N 1.2053 -2.1347 0.0 0
M  V30 4 C -1.3215 -2.1347 0.0 0 CFG=2
M  V30 5 C 1.1762 -3.5579 0.0 0
M  V30 6 C -3.1803 -3.4998 0.0 0
M  V30 7 C -2.6139 -1.365 0.0 0
M  V30 8 C -1.3505 -3.5579 0.0 0
M  V30 9 O 2.4106 -4.2695 0.0 0
M  V30 10 C -0.1161 -4.255 0.0 0
M  V30 11 C -3.2094 -4.9375 0.0 0
M  V30 12 C -4.4728 -2.7301 0.0 0
M  V30 13 C -3.9064 -2.0766 0.0 0
M  V30 14 C -2.643 0.1161 0.0 0
M  V30 15 C -4.5018 -5.6346 0.0 0
M  V30 16 C -5.7507 -3.4417 0.0 0
M  V30 17 C -5.1844 -1.3215 0.0 0
M  V30 18 C -3.9355 0.8858 0.0 0
M  V30 19 C -5.7943 -4.8794 0.0 0
M  V30 20 N -5.2134 0.1597 0.0 0
M  V30 21 C -6.5059 0.9148 0.0 0
M  V30 22 C -6.5349 2.4252 0.0 0
M  V30 23 C -5.286 3.1948 0.0 0
M  V30 24 C -7.8419 3.1948 0.0 0
M  V30 25 C -5.3151 4.7051 0.0 0
M  V30 26 C -7.8855 4.6906 0.0 0
M  V30 27 C -6.6221 5.4748 0.0 0
M  V30 END ATOM
M  V30 BEGIN BOND
M  V30 1 2 1 2
M  V30 2 1 2 3
M  V30 3 1 2 4
M  V30 4 1 3 5
M  V30 5 1 4 6 CFG=3
M  V30 6 1 4 7
M  V30 7 1 4 8
M  V30 8 2 5 9
M  V30 9 1 5 10
M  V30 10 2 6 11
M  V30 11 1 6 12
M  V30 12 1 7 13
M  V30 13 1 7 14
M  V30 14 1 11 15
M  V30 15 2 12 16
M  V30 16 1 13 17
M  V30 17 1 14 18
M  V30 18 2 15 19
M  V30 19 1 17 20
M  V30 20 1 20 21
M  V30 21 1 21 22
M  V30 22 2 22 23
M  V30 23 1 22 24
M  V30 24 1 23 25
M  V30 25 2 24 26
M  V30 26 2 25 27
M  V30 27 1 8 10
M  V30 28 1 16 19
M  V30 29 1 18 20
M  V30 30 1 26 27
M  V30 END BOND
M  V30 BEGIN COLLECTION
M  V30 MDLV30/STERAC1 ATOMS=(1 4)
M  V30 END COLLECTION
M  V30 END CTAB
M  END
>  <SMILES>
O=C1CC[C@@](C2CCN(CC3=CC=CC=C3)CC2)(C(=O)N1)C1=CC=CC=C1

>  <INCHI_IDENTIFIER>
InChI=1S/C23H26N2O2/c26-21-11-14-23(22(27)24-21,19-9-5-2-6-10-19)20-12-15-25(16-13-20)17-18-7-3-1-4-8-18/h1-10,20H,11-17H2,(H,24,26,27)/t23-/m1/s1

>  <INCHI_KEY>
LQQIVYSCPWCSSD-HSZRJFAPSA-N

>  <FORMULA>
C23H26N2O2

>  <MOLECULAR_WEIGHT>
362.4647

>  <DRUGBANK_ID>
DB08997

>  <DRUG_GROUPS>
withdrawn

>  <GENERIC_NAME>
Dexetimide

>  <SYNONYMS>
Dexetimida; Dexetimide; Dexetimidum

$$$$
Compound 41
Actelion Java MolfileCreator 2.0

  0  0  0  0  0  0              0 V3000
M  V30 BEGIN CTAB
M  V30 COUNTS 10 10 0 0 0
M  V30 BEGIN ATOM
M  V30 1 N 0.0 0.0 0.0 0
M  V30 2 C -0.0235 -1.4853 0.0 0 CFG=2
M  V30 3 C 1.2849 0.778 0.0 0
M  V30 4 C -1.3557 -2.228 0.0 0
M  V30 5 C 1.2613 -2.228 0.0 0
M  V30 6 C -1.3792 -3.7134 0.0 0
M  V30 7 C -2.6288 -4.5858 0.0 0
M  V30 8 C -0.1768 -4.5858 0.0 0
M  V30 9 C -2.1926 -6.0004 0.0 0
M  V30 10 C -0.6601 -6.0004 0.0 0
M  V30 END ATOM
M  V30 BEGIN BOND
M  V30 1 1 2 1 CFG=1
M  V30 2 1 1 3
M  V30 3 1 2 4
M  V30 4 1 2 5
M  V30 5 1 4 6
M  V30 6 1 6 7
M  V30 7 1 6 8
M  V30 8 1 7 9
M  V30 9 1 8 10
M  V30 10 1 9 10
M  V30 END BOND
M  V30 BEGIN COLLECTION
M  V30 MDLV30/STERAC1 ATOMS=(1 2)
M  V30 END COLLECTION
M  V30 END CTAB
M  END
>  <SMILES>
CNC(C)CC1CCCC1

>  <INCHI_IDENTIFIER>
InChI=1S/C9H19N/c1-8(10-2)7-9-5-3-4-6-9/h8-10H,3-7H2,1-2H3

>  <INCHI_KEY>
HFXKQSZZZPGLKQ-UHFFFAOYSA-N

>  <FORMULA>
C9H19N

>  <MOLECULAR_WEIGHT>
141.258

>  <DRUGBANK_ID>
DB08999

>  <DRUG_GROUPS>
withdrawn

>  <GENERIC_NAME>
Cyclopentamine

>  <SYNONYMS>


$$$$
Compound 42
Actelion Java MolfileCreator 2.0

  0  0  0  0  0  0              0 V3000
M  V30 BEGIN CTAB
M  V30 COUNTS 17 17 0 0 0
M  V30 BEGIN ATOM
M  V30 1 Cl 0.0 0.0 0.0 0
M  V30 2 C -0.0235 -1.4827 0.0 0
M  V30 3 C 1.2591 -2.2005 0.0 0
M  V30 4 C -1.3533 -2.2005 0.0 0
M  V30 5 C 1.2356 -3.6833 0.0 0
M  V30 6 C -1.3768 -3.6833 0.0 0
M  V30 7 C -0.0941 -4.4011 0.0 0
M  V30 8 C -0.1176 -5.8839 0.0 0
M  V30 9 C -1.4474 -6.6135 0.0 0
M  V30 10 O -0.7296 -7.8962 0.0 0
M  V30 11 C -2.7772 -7.3549 0.0 0
M  V30 12 C -2.2241 -5.2837 0.0 0
M  V30 13 C -2.8007 -8.8376 0.0 0
M  V30 14 C -4.1069 -6.5782 0.0 0
M  V30 15 N -4.1305 -9.5555 0.0 0
M  V30 16 C -4.154 -11.0382 0.0 0
M  V30 17 C -5.4603 -8.7788 0.0 0
M  V30 END ATOM
M  V30 BEGIN BOND
M  V30 1 1 1 2
M  V30 2 2 2 3
M  V30 3 1 2 4
M  V30 4 1 3 5
M  V30 5 2 4 6
M  V30 6 2 5 7
M  V30 7 1 7 8
M  V30 8 1 8 9
M  V30 9 1 9 10
M  V30 10 1 9 11
M  V30 11 1 9 12
M  V30 12 1 11 13
M  V30 13 1 11 14
M  V30 14 1 13 15
M  V30 15 1 15 16
M  V30 16 1 15 17
M  V30 17 1 6 7
M  V30 END BOND
M  V30 END CTAB
M  END
>  <SMILES>
CC(CN(C)C)C(C)(O)CC1=CC=C(Cl)C=C1

>  <INCHI_IDENTIFIER>
InChI=1S/C14H22ClNO/c1-11(10-16(3)4)14(2,17)9-12-5-7-13(15)8-6-12/h5-8,11,17H,9-10H2,1-4H3

>  <INCHI_KEY>
KVHHQGIIZCJATJ-UHFFFAOYSA-N

>  <FORMULA>
C14H22ClNO

>  <MOLECULAR_WEIGHT>
255.784

>  <DRUGBANK_ID>
DB09004

>  <DRUG_GROUPS>
withdrawn

>  <GENERIC_NAME>
Clobutinol

>  <SYNONYMS>


$$$$
Compound 43
Actelion Java MolfileCreator 2.0

  0  0  0  0  0  0              0 V3000
M  V30 BEGIN CTAB
M  V30 COUNTS 21 22 0 0 0
M  V30 BEGIN ATOM
M  V30 1 Cl 0.0 0.0 0.0 0
M  V30 2 C 1.4939 0.024 0.0 0
M  V30 3 C 2.2289 1.3614 0.0 0
M  V30 4 C 2.2289 -1.265 0.0 0
M  V30 5 C 3.7228 1.3855 0.0 0
M  V30 6 C 3.7228 -1.2409 0.0 0
M  V30 7 C 4.4578 0.0963 0.0 0
M  V30 8 C 5.9518 0.1204 0.0 0 CFG=1
M  V30 9 O 7.4457 0.1445 0.0 0
M  V30 10 C 5.9277 -1.3734 0.0 0
M  V30 11 C 5.9277 1.6626 0.0 0
M  V30 12 C 8.1807 -1.1445 0.0 0
M  V30 13 C 7.2168 -2.1084 0.0 0
M  V30 14 C 4.5903 -2.1084 0.0 0
M  V30 15 C 9.6746 -1.1204 0.0 0
M  V30 16 C 7.1927 -3.6024 0.0 0
M  V30 17 C 4.5662 -3.6024 0.0 0
M  V30 18 N 10.4096 -2.4096 0.0 0
M  V30 19 C 5.8554 -4.3373 0.0 0
M  V30 20 C 11.9036 -2.3855 0.0 0
M  V30 21 C 9.6265 -3.6987 0.0 0
M  V30 END ATOM
M  V30 BEGIN BOND
M  V30 1 1 1 2
M  V30 2 2 2 3
M  V30 3 1 2 4
M  V30 4 1 3 5
M  V30 5 2 4 6
M  V30 6 2 5 7
M  V30 7 1 8 7 CFG=1
M  V30 8 1 8 9
M  V30 9 1 8 10
M  V30 10 1 8 11
M  V30 11 1 9 12
M  V30 12 2 10 13
M  V30 13 1 10 14
M  V30 14 1 12 15
M  V30 15 1 13 16
M  V30 16 2 14 17
M  V30 17 1 15 18
M  V30 18 2 16 19
M  V30 19 1 18 20
M  V30 20 1 18 21
M  V30 21 1 6 7
M  V30 22 1 17 19
M  V30 END BOND
M  V30 BEGIN COLLECTION
M  V30 MDLV30/STERAC1 ATOMS=(1 8)
M  V30 END COLLECTION
M  V30 END CTAB
M  END
>  <SMILES>
CN(C)CCOC(C)(C1=CC=CC=C1)C1=CC=C(Cl)C=C1

>  <INCHI_IDENTIFIER>
InChI=1S/C18H22ClNO/c1-18(21-14-13-20(2)3,15-7-5-4-6-8-15)16-9-11-17(19)12-10-16/h4-12H,13-14H2,1-3H3

>  <INCHI_KEY>
KKHPNPMTPORSQE-UHFFFAOYSA-N

>  <FORMULA>
C18H22ClNO

>  <MOLECULAR_WEIGHT>
303.826

>  <DRUGBANK_ID>
DB09007

>  <DRUG_GROUPS>
withdrawn

>  <GENERIC_NAME>
Chlorphenoxamine

>  <SYNONYMS>


$$$$
Compound 44
Actelion Java MolfileCreator 2.0

  0  0  0  0  0  0              0 V3000
M  V30 BEGIN CTAB
M  V30 COUNTS 28 31 0 0 0
M  V30 BEGIN ATOM
M  V30 1 S 0.0 0.0 0.0 0
M  V30 2 C -1.3235 -0.7273 0.0 0 CFG=2
M  V30 3 C 1.2758 -0.7273 0.0 0
M  V30 4 N -1.3473 -2.2058 0.0 0
M  V30 5 C -2.8497 -0.7034 0.0 0 CFG=2
M  V30 6 C 1.2519 -2.2058 0.0 0
M  V30 7 C -0.0715 -2.9331 0.0 0
M  V30 8 C -2.8735 -2.1819 0.0 0
M  V30 9 N -4.1732 0.0596 0.0 0
M  V30 10 C 2.5516 -2.945 0.0 0
M  V30 11 C -0.0953 -4.4116 0.0 0
M  V30 12 O -4.197 -2.9093 0.0 0
M  V30 13 C -5.4967 -0.6677 0.0 0
M  V30 14 N 3.8274 -2.17 0.0 0 CHG=1
M  V30 15 O -1.4308 -5.1509 0.0 0
M  V30 16 O 1.1565 -5.139 0.0 0 CHG=-1
M  V30 17 O -5.5205 -2.1462 0.0 0
M  V30 18 C -6.8202 0.0953 0.0 0
M  V30 19 C 5.1032 -2.8973 0.0 0
M  V30 20 C 3.8035 -0.6438 0.0 0
M  V30 21 C -8.1675 -0.6319 0.0 0
M  V30 22 C 6.379 -2.1223 0.0 0
M  V30 23 C 5.0793 0.1192 0.0 0
M  V30 24 S -9.3956 0.2861 0.0 0
M  V30 25 C -8.6683 -2.0389 0.0 0
M  V30 26 C 6.3551 -0.5961 0.0 0
M  V30 27 C -10.6357 -0.5604 0.0 0
M  V30 28 C -10.1945 -2.0031 0.0 0
M  V30 END ATOM
M  V30 BEGIN BOND
M  V30 1 1 2 1 CFG=3
M  V30 2 1 1 3
M  V30 3 1 2 4
M  V30 4 1 2 5
M  V30 5 1 3 6
M  V30 6 1 4 7
M  V30 7 1 4 8
M  V30 8 1 5 9 CFG=3
M  V30 9 1 6 10
M  V30 10 1 7 11
M  V30 11 2 8 12
M  V30 12 1 9 13
M  V30 13 1 10 14
M  V30 14 2 11 15
M  V30 15 1 11 16
M  V30 16 2 13 17
M  V30 17 1 13 18
M  V30 18 2 14 19
M  V30 19 1 14 20
M  V30 20 1 18 21
M  V30 21 1 19 22
M  V30 22 2 20 23
M  V30 23 1 21 24
M  V30 24 2 21 25
M  V30 25 2 22 26
M  V30 26 1 24 27
M  V30 27 1 25 28
M  V30 28 1 5 8
M  V30 29 2 6 7
M  V30 30 1 23 26
M  V30 31 2 27 28
M  V30 END BOND
M  V30 BEGIN COLLECTION
M  V30 MDLV30/STERAC1 ATOMS=(2 2 5)
M  V30 END COLLECTION
M  V30 END CTAB
M  END
>  <SMILES>
[H][C@]12SCC(C[N+]3=CC=CC=C3)=C(N1C(=O)[C@H]2NC(=O)CC1=CC=CS1)C([O-])=O

>  <INCHI_IDENTIFIER>
InChI=1S/C19H17N3O4S2/c23-14(9-13-5-4-8-27-13)20-15-17(24)22-16(19(25)26)12(11-28-18(15)22)10-21-6-2-1-3-7-21/h1-8,15,18H,9-11H2,(H-,20,23,25,26)/t15-,18-/m1/s1

>  <INCHI_KEY>
CZTQZXZIADLWOZ-CRAIPNDOSA-N

>  <FORMULA>
C19H17N3O4S2

>  <MOLECULAR_WEIGHT>
415.486

>  <DRUGBANK_ID>
DB09008

>  <DRUG_GROUPS>
experimental; withdrawn

>  <GENERIC_NAME>
Cefaloridine

>  <SYNONYMS>
(6R,7R)-8-oxo-3-(pyridin-1-ium-1-ylmethyl)- 7-[(2-thiophen-2-ylacetyl)amino]-5-thia-1- azabicyclo[4.2.0]oct-2-ene-2-carboxylate; Cefaloridin; Cefaloridina; C√©faloridine; Cefaloridine; Cefaloridinum; Cephalomycine; Cephaloridine

$$$$
Compound 45
Actelion Java MolfileCreator 2.0

  0  0  0  0  0  0              0 V3000
M  V30 BEGIN CTAB
M  V30 COUNTS 18 18 0 0 0
M  V30 BEGIN ATOM
M  V30 1 F 0.0 0.0 0.0 0
M  V30 2 C -1.3201 -0.732 0.0 0
M  V30 3 C -2.6402 0.036 0.0 0
M  V30 4 C -1.3441 -2.2082 0.0 0
M  V30 5 O -2.6522 1.5721 0.0 0
M  V30 6 N -3.9604 -0.696 0.0 0
M  V30 7 N -2.6642 -2.9403 0.0 0
M  V30 8 C -3.9724 -2.1722 0.0 0
M  V30 9 C -2.6762 -4.4284 0.0 0
M  V30 10 O -5.2925 -2.9042 0.0 0
M  V30 11 O -1.3801 -5.1485 0.0 0
M  V30 12 N -3.9844 -5.1605 0.0 0
M  V30 13 C -4.0084 -6.6366 0.0 0
M  V30 14 C -5.3285 -7.3807 0.0 0
M  V30 15 C -5.3525 -8.8569 0.0 0
M  V30 16 C -6.6726 -9.6009 0.0 0
M  V30 17 C -6.6966 -11.0771 0.0 0
M  V30 18 C -8.0048 -11.8092 0.0 0
M  V30 END ATOM
M  V30 BEGIN BOND
M  V30 1 1 1 2
M  V30 2 1 2 3
M  V30 3 2 2 4
M  V30 4 2 3 5
M  V30 5 1 3 6
M  V30 6 1 4 7
M  V30 7 1 6 8
M  V30 8 1 7 9
M  V30 9 2 8 10
M  V30 10 2 9 11
M  V30 11 1 9 12
M  V30 12 1 12 13
M  V30 13 1 13 14
M  V30 14 1 14 15
M  V30 15 1 15 16
M  V30 16 1 16 17
M  V30 17 1 17 18
M  V30 18 1 7 8
M  V30 END BOND
M  V30 END CTAB
M  END
>  <SMILES>
CCCCCCNC(=O)N1C=C(F)C(=O)NC1=O

>  <INCHI_IDENTIFIER>
InChI=1S/C11H16FN3O3/c1-2-3-4-5-6-13-10(17)15-7-8(12)9(16)14-11(15)18/h7H,2-6H2,1H3,(H,13,17)(H,14,16,18)

>  <INCHI_KEY>
AOCCBINRVIKJHY-UHFFFAOYSA-N

>  <FORMULA>
C11H16FN3O3

>  <MOLECULAR_WEIGHT>
257.2614

>  <DRUGBANK_ID>
DB09010

>  <DRUG_GROUPS>
withdrawn

>  <GENERIC_NAME>
Carmofur

>  <SYNONYMS>
Carmofur

$$$$
Compound 46
Actelion Java MolfileCreator 2.0

  0  0  0  0  0  0              0 V3000
M  V30 BEGIN CTAB
M  V30 COUNTS 17 18 0 0 0
M  V30 BEGIN ATOM
M  V30 1 O 0.0 0.0 0.0 0
M  V30 2 C 1.282 -0.7292 0.0 0
M  V30 3 C 1.2585 -2.2112 0.0 0
M  V30 4 C 2.5758 0.0588 0.0 0
M  V30 5 N -0.0705 -2.9287 0.0 0
M  V30 6 C 2.5523 -2.9287 0.0 0
M  V30 7 C 3.8578 -0.6704 0.0 0
M  V30 8 N -1.4114 -2.1524 0.0 0
M  V30 9 C 3.8343 -2.1524 0.0 0
M  V30 10 N 5.281 -0.1881 0.0 0
M  V30 11 C -2.7405 -2.8816 0.0 0
M  V30 12 C 5.2575 -2.5876 0.0 0 CFG=2
M  V30 13 C 6.1514 -1.3879 0.0 0
M  V30 14 C 5.7162 1.282 0.0 0
M  V30 15 O -2.764 -4.3636 0.0 0
M  V30 16 N -4.0813 -2.0936 0.0 0
M  V30 17 O 5.6927 -3.999 0.0 0
M  V30 END ATOM
M  V30 BEGIN BOND
M  V30 1 2 1 2
M  V30 2 1 2 3
M  V30 3 1 2 4
M  V30 4 2 3 5
M  V30 5 1 3 6
M  V30 6 2 4 7
M  V30 7 1 5 8
M  V30 8 2 6 9
M  V30 9 1 7 10
M  V30 10 1 8 11
M  V30 11 1 9 12
M  V30 12 1 10 13
M  V30 13 1 10 14
M  V30 14 2 11 15
M  V30 15 1 11 16
M  V30 16 1 12 17 CFG=3
M  V30 17 1 7 9
M  V30 18 1 12 13
M  V30 END BOND
M  V30 BEGIN COLLECTION
M  V30 MDLV30/STERAC1 ATOMS=(1 12)
M  V30 END COLLECTION
M  V30 END CTAB
M  END
>  <SMILES>
CN1CC(O)C2=C\C(=N\NC(N)=O)C(=O)C=C12

>  <INCHI_IDENTIFIER>
InChI=1S/C10H12N4O3/c1-14-4-9(16)5-2-6(12-13-10(11)17)8(15)3-7(5)14/h2-3,9,16H,4H2,1H3,(H3,11,13,17)/b12-6-

>  <INCHI_KEY>
XSXCZNVKFKNLPR-SDQBBNPISA-N

>  <FORMULA>
C10H12N4O3

>  <MOLECULAR_WEIGHT>
236.231

>  <DRUGBANK_ID>
DB09012

>  <DRUG_GROUPS>
experimental; withdrawn

>  <GENERIC_NAME>
Carbazochrome

>  <SYNONYMS>
3-Hydroxy-1-methyl-5,6-inodlindionsemicarbazon; Adchnon; Adedolon; Adrenostan; Carbazochrom; Carbazochrome; Carbazochromum; Carbazocromo

$$$$
Compound 47
Actelion Java MolfileCreator 2.0

  0  0  0  0  0  0              0 V3000
M  V30 BEGIN CTAB
M  V30 COUNTS 24 25 0 0 0
M  V30 BEGIN ATOM
M  V30 1 O 0.0 0.0 0.0 0
M  V30 2 C -0.0238 -1.4782 0.0 0
M  V30 3 O -1.3471 -2.2174 0.0 0
M  V30 4 C 1.2517 -2.2174 0.0 0
M  V30 5 C -2.6704 -1.4544 0.0 0
M  V30 6 O 0.4768 -3.493 0.0 0
M  V30 7 C 2.5274 -2.9565 0.0 0
M  V30 8 C 1.9909 -0.8941 0.0 0
M  V30 9 C -3.9937 -2.1936 0.0 0
M  V30 10 C 3.803 -2.1936 0.0 0
M  V30 11 C 2.5035 -4.4348 0.0 0
M  V30 12 C 1.216 0.4291 0.0 0
M  V30 13 C 3.4692 -0.8702 0.0 0
M  V30 14 N -5.317 -1.4306 0.0 0
M  V30 15 C 5.0786 -2.9327 0.0 0
M  V30 16 C 3.7791 -5.1621 0.0 0
M  V30 17 C 1.9551 1.7524 0.0 0
M  V30 18 C 4.1964 0.453 0.0 0
M  V30 19 C -6.6404 -2.1697 0.0 0
M  V30 20 C -5.3409 0.0953 0.0 0
M  V30 21 C 5.0548 -4.411 0.0 0
M  V30 22 C 3.4334 1.7763 0.0 0
M  V30 23 C -7.9637 -1.3948 0.0 0
M  V30 24 C -4.0653 0.8702 0.0 0
M  V30 END ATOM
M  V30 BEGIN BOND
M  V30 1 2 1 2
M  V30 2 1 2 3
M  V30 3 1 2 4
M  V30 4 1 3 5
M  V30 5 1 4 6
M  V30 6 1 4 7
M  V30 7 1 4 8
M  V30 8 1 5 9
M  V30 9 2 7 10
M  V30 10 1 7 11
M  V30 11 2 8 12
M  V30 12 1 8 13
M  V30 13 1 9 14
M  V30 14 1 10 15
M  V30 15 2 11 16
M  V30 16 1 12 17
M  V30 17 2 13 18
M  V30 18 1 14 19
M  V30 19 1 14 20
M  V30 20 2 15 21
M  V30 21 2 17 22
M  V30 22 1 19 23
M  V30 23 1 20 24
M  V30 24 1 16 21
M  V30 25 1 18 22
M  V30 END BOND
M  V30 END CTAB
M  END
>  <SMILES>
CCN(CC)CCOC(=O)C(O)(C1=CC=CC=C1)C1=CC=CC=C1

>  <INCHI_IDENTIFIER>
InChI=1S/C20H25NO3/c1-3-21(4-2)15-16-24-19(22)20(23,17-11-7-5-8-12-17)18-13-9-6-10-14-18/h5-14,23H,3-4,15-16H2,1-2H3

>  <INCHI_KEY>
IVQOFBKHQCTVQV-UHFFFAOYSA-N

>  <FORMULA>
C20H25NO3

>  <MOLECULAR_WEIGHT>
327.4174

>  <DRUGBANK_ID>
DB09023

>  <DRUG_GROUPS>
withdrawn

>  <GENERIC_NAME>
Benactyzine

>  <SYNONYMS>


$$$$
Compound 48
Actelion Java MolfileCreator 2.0

  0  0  0  0  0  0              0 V3000
M  V30 BEGIN CTAB
M  V30 COUNTS 26 28 0 0 0
M  V30 BEGIN ATOM
M  V30 1 Cl 0.0 0.0 0.0 0
M  V30 2 C -0.0239 1.5306 0.0 0
M  V30 3 C 1.2556 2.296 0.0 0
M  V30 4 C -1.3513 2.296 0.0 0
M  V30 5 C 1.2317 3.8267 0.0 0
M  V30 6 C -1.3752 3.8267 0.0 0
M  V30 7 N 2.5112 4.604 0.0 0
M  V30 8 C -0.0956 4.604 0.0 0
M  V30 9 C 3.7908 3.8745 0.0 0
M  V30 10 C 2.4873 6.1347 0.0 0
M  V30 11 C 5.0704 4.6399 0.0 0
M  V30 12 C 3.7669 6.912 0.0 0
M  V30 13 N 5.0464 6.1705 0.0 0
M  V30 14 C 6.326 6.9359 0.0 0
M  V30 15 C 7.6056 6.1945 0.0 0
M  V30 16 C 8.8851 6.9598 0.0 0
M  V30 17 N 10.1647 6.2184 0.0 0
M  V30 18 N 10.2962 4.7475 0.0 0
M  V30 19 C 11.516 6.8641 0.0 0
M  V30 20 C 11.7432 4.4605 0.0 0
M  V30 21 O 11.803 8.359 0.0 0
M  V30 22 N 12.4966 5.7759 0.0 0
M  V30 23 C 12.3411 3.1092 0.0 0
M  V30 24 C 13.9675 5.9553 0.0 0
M  V30 25 C 13.812 2.9776 0.0 0
M  V30 26 C 14.5654 7.3544 0.0 0
M  V30 END ATOM
M  V30 BEGIN BOND
M  V30 1 1 1 2
M  V30 2 2 2 3
M  V30 3 1 2 4
M  V30 4 1 3 5
M  V30 5 2 4 6
M  V30 6 1 5 7
M  V30 7 2 5 8
M  V30 8 1 7 9
M  V30 9 1 7 10
M  V30 10 1 9 11
M  V30 11 1 10 12
M  V30 12 1 11 13
M  V30 13 1 13 14
M  V30 14 1 14 15
M  V30 15 1 15 16
M  V30 16 1 16 17
M  V30 17 1 17 18
M  V30 18 1 17 19
M  V30 19 2 18 20
M  V30 20 2 19 21
M  V30 21 1 19 22
M  V30 22 1 20 23
M  V30 23 1 22 24
M  V30 24 1 23 25
M  V30 25 1 24 26
M  V30 26 1 6 8
M  V30 27 1 12 13
M  V30 28 1 20 22
M  V30 END BOND
M  V30 END CTAB
M  END
>  <SMILES>
CCN1C(=O)N(CCCN2CCN(CC2)C2=CC=CC(Cl)=C2)N=C1CC

>  <INCHI_IDENTIFIER>
InChI=1S/C19H28ClN5O/c1-3-18-21-25(19(26)24(18)4-2)10-6-9-22-11-13-23(14-12-22)17-8-5-7-16(20)15-17/h5,7-8,15H,3-4,6,9-14H2,1-2H3

>  <INCHI_KEY>
IZBNNCFOBMGTQX-UHFFFAOYSA-N

>  <FORMULA>
C19H28ClN5O

>  <MOLECULAR_WEIGHT>
377.92

>  <DRUGBANK_ID>
DB09194

>  <DRUG_GROUPS>
withdrawn

>  <GENERIC_NAME>
Etoperidone

>  <SYNONYMS>


$$$$
Compound 49
Actelion Java MolfileCreator 2.0

  0  0  0  0  0  0              0 V3000
M  V30 BEGIN CTAB
M  V30 COUNTS 25 28 0 0 0
M  V30 BEGIN ATOM
M  V30 1 S 0.0 0.0 0.0 0
M  V30 2 O -0.7595 -1.2699 0.0 0
M  V30 3 O 0.7239 -1.2699 0.0 0
M  V30 4 N 1.2699 0.7595 0.0 0
M  V30 5 C -1.3173 0.7595 0.0 0
M  V30 6 C 1.2461 2.2787 0.0 0
M  V30 7 C 2.5279 0.0356 0.0 0
M  V30 8 C -1.3411 2.2787 0.0 0
M  V30 9 C -2.6347 0.0356 0.0 0
M  V30 10 C 2.516 3.0501 0.0 0
M  V30 11 C -0.0712 3.0501 0.0 0
M  V30 12 C -2.6585 3.0501 0.0 0
M  V30 13 C -3.9521 0.807 0.0 0
M  V30 14 O 3.8097 2.3024 0.0 0
M  V30 15 N 2.4923 4.5693 0.0 0
M  V30 16 O -0.0949 4.5693 0.0 0
M  V30 17 C -3.9759 2.3262 0.0 0
M  V30 18 C 1.1749 5.3407 0.0 0
M  V30 19 C 3.786 5.3526 0.0 0
M  V30 20 O 1.1512 6.8599 0.0 0
M  V30 21 N 3.7622 6.8717 0.0 0
M  V30 22 C 5.044 4.6286 0.0 0
M  V30 23 C 5.0321 7.6432 0.0 0
M  V30 24 C 6.3139 5.4001 0.0 0
M  V30 25 C 6.2902 6.9192 0.0 0
M  V30 END ATOM
M  V30 BEGIN BOND
M  V30 1 2 1 2
M  V30 2 2 1 3
M  V30 3 1 1 4
M  V30 4 1 1 5
M  V30 5 1 4 6
M  V30 6 1 4 7
M  V30 7 2 5 8
M  V30 8 1 5 9
M  V30 9 1 6 10
M  V30 10 2 6 11
M  V30 11 1 8 12
M  V30 12 2 9 13
M  V30 13 2 10 14
M  V30 14 1 10 15
M  V30 15 1 11 16
M  V30 16 2 12 17
M  V30 17 1 15 18
M  V30 18 1 15 19
M  V30 19 2 18 20
M  V30 20 2 19 21
M  V30 21 1 19 22
M  V30 22 1 21 23
M  V30 23 2 22 24
M  V30 24 2 23 25
M  V30 25 1 8 11
M  V30 26 1 13 17
M  V30 27 1 16 18
M  V30 28 1 24 25
M  V30 END BOND
M  V30 END CTAB
M  END
>  <SMILES>
CN1C2=C(OC(=O)N(C2=O)C2=CC=CC=N2)C2=CC=CC=C2S1(=O)=O

>  <INCHI_IDENTIFIER>
InChI=1S/C16H11N3O5S/c1-18-13-14(10-6-2-3-7-11(10)25(18,22)23)24-16(21)19(15(13)20)12-8-4-5-9-17-12/h2-9H,1H3

>  <INCHI_KEY>
OEHFRZLKGRKFAS-UHFFFAOYSA-N

>  <FORMULA>
C16H11N3O5S

>  <MOLECULAR_WEIGHT>
357.34

>  <DRUGBANK_ID>
DB09215

>  <DRUG_GROUPS>
withdrawn

>  <GENERIC_NAME>
Droxicam

>  <SYNONYMS>
droxicam

$$$$
Compound 50
Actelion Java MolfileCreator 2.0

  0  0  0  0  0  0              0 V3000
M  V30 BEGIN CTAB
M  V30 COUNTS 18 19 0 0 0
M  V30 BEGIN ATOM
M  V30 1 O 0.0 0.0 0.0 0
M  V30 2 C -0.0238 -1.4779 0.0 0
M  V30 3 N -1.3468 -2.205 0.0 0
M  V30 4 C 1.2515 -2.205 0.0 0
M  V30 5 N -2.6698 -1.4422 0.0 0
M  V30 6 C 2.5268 -1.4422 0.0 0
M  V30 7 C 1.2276 -3.683 0.0 0
M  V30 8 C -3.9929 -2.1692 0.0 0 CFG=2
M  V30 9 C 3.8022 -2.1692 0.0 0
M  V30 10 C 2.503 -4.41 0.0 0
M  V30 11 C -5.3159 -1.4064 0.0 0
M  V30 12 C -4.0167 -3.6472 0.0 0
M  V30 13 C 3.7783 -3.6472 0.0 0
M  V30 14 C -6.6389 -2.1335 0.0 0
M  V30 15 C -5.3397 0.1191 0.0 0
M  V30 16 C -7.962 -1.3587 0.0 0
M  V30 17 C -6.6628 0.8939 0.0 0
M  V30 18 C -7.9858 0.1668 0.0 0
M  V30 END ATOM
M  V30 BEGIN BOND
M  V30 1 2 1 2
M  V30 2 1 2 3
M  V30 3 1 2 4
M  V30 4 1 3 5
M  V30 5 2 4 6
M  V30 6 1 4 7
M  V30 7 1 8 5 CFG=1
M  V30 8 1 6 9
M  V30 9 2 7 10
M  V30 10 1 8 11
M  V30 11 1 8 12
M  V30 12 2 9 13
M  V30 13 2 11 14
M  V30 14 1 11 15
M  V30 15 1 14 16
M  V30 16 2 15 17
M  V30 17 2 16 18
M  V30 18 1 10 13
M  V30 19 1 17 18
M  V30 END BOND
M  V30 BEGIN COLLECTION
M  V30 MDLV30/STERAC1 ATOMS=(1 8)
M  V30 END COLLECTION
M  V30 END CTAB
M  END
>  <SMILES>
CC(NNC(=O)C1=CC=CC=C1)C1=CC=CC=C1

>  <INCHI_IDENTIFIER>
InChI=1S/C15H16N2O/c1-12(13-8-4-2-5-9-13)16-17-15(18)14-10-6-3-7-11-14/h2-12,16H,1H3,(H,17,18)

>  <INCHI_KEY>
BEWNZPMDJIGBED-UHFFFAOYSA-N

>  <FORMULA>
C15H16N2O

>  <MOLECULAR_WEIGHT>
240.306

>  <DRUGBANK_ID>
DB09246

>  <DRUG_GROUPS>
withdrawn

>  <GENERIC_NAME>
Benmoxin

>  <SYNONYMS>
Mebamoxine

$$$$
Compound 51
Actelion Java MolfileCreator 2.0

  0  0  0  0  0  0              0 V3000
M  V30 BEGIN CTAB
M  V30 COUNTS 16 16 0 0 0
M  V30 BEGIN ATOM
M  V30 1 Cl 0.0 0.0 0.0 0
M  V30 2 C 1.285 0.7686 0.0 0
M  V30 3 C 2.57 0.036 0.0 0
M  V30 4 C 1.261 2.3058 0.0 0
M  V30 5 C 3.8551 0.8046 0.0 0
M  V30 6 C 2.546 3.0745 0.0 0
M  V30 7 C 3.8311 2.3419 0.0 0
M  V30 8 O 5.1401 3.1105 0.0 0
M  V30 9 C 6.4252 2.3779 0.0 0
M  V30 10 C 7.7102 3.1465 0.0 0
M  V30 11 O 7.6862 4.6838 0.0 0
M  V30 12 N 8.9953 2.4139 0.0 0
M  V30 13 N 10.2803 3.1825 0.0 0
M  V30 14 C 11.5654 2.4499 0.0 0
M  V30 15 C 12.8504 3.2186 0.0 0
M  V30 16 C 11.5413 0.9607 0.0 0
M  V30 END ATOM
M  V30 BEGIN BOND
M  V30 1 1 1 2
M  V30 2 2 2 3
M  V30 3 1 2 4
M  V30 4 1 3 5
M  V30 5 2 4 6
M  V30 6 2 5 7
M  V30 7 1 7 8
M  V30 8 1 8 9
M  V30 9 1 9 10
M  V30 10 2 10 11
M  V30 11 1 10 12
M  V30 12 1 12 13
M  V30 13 1 13 14
M  V30 14 1 14 15
M  V30 15 1 14 16
M  V30 16 1 6 7
M  V30 END BOND
M  V30 END CTAB
M  END
>  <SMILES>
CC(C)NNC(=O)COC1=CC=C(Cl)C=C1

>  <INCHI_IDENTIFIER>
InChI=1S/C11H15ClN2O2/c1-8(2)13-14-11(15)7-16-10-5-3-9(12)4-6-10/h3-6,8,13H,7H2,1-2H3,(H,14,15)

>  <INCHI_KEY>
GGECDTUJZOXAAR-UHFFFAOYSA-N

>  <FORMULA>
C11H15ClN2O2

>  <MOLECULAR_WEIGHT>
242.7

>  <DRUGBANK_ID>
DB09247

>  <DRUG_GROUPS>
withdrawn

>  <GENERIC_NAME>
Iproclozide

>  <SYNONYMS>


$$$$
Compound 52
Actelion Java MolfileCreator 2.0

  0  0  0  0  0  0              0 V3000
M  V30 BEGIN CTAB
M  V30 COUNTS 10 10 0 0 0
M  V30 BEGIN ATOM
M  V30 1 N 0.0 0.0 0.0 0
M  V30 2 N -1.3231 0.7728 0.0 0
M  V30 3 C -0.0234 -1.4754 0.0 0 CFG=2
M  V30 4 C -1.3466 -2.2014 0.0 0
M  V30 5 C 1.2529 -2.2014 0.0 0
M  V30 6 C -2.658 -1.4168 0.0 0
M  V30 7 C -1.37 -3.6768 0.0 0
M  V30 8 C -3.9812 -2.1428 0.0 0
M  V30 9 C -2.6814 -4.3911 0.0 0
M  V30 10 C -4.0046 -3.6182 0.0 0
M  V30 END ATOM
M  V30 BEGIN BOND
M  V30 1 1 1 2
M  V30 2 1 3 1 CFG=1
M  V30 3 1 3 4
M  V30 4 1 3 5
M  V30 5 2 4 6
M  V30 6 1 4 7
M  V30 7 1 6 8
M  V30 8 2 7 9
M  V30 9 2 8 10
M  V30 10 1 9 10
M  V30 END BOND
M  V30 BEGIN COLLECTION
M  V30 MDLV30/STERAC1 ATOMS=(1 3)
M  V30 END COLLECTION
M  V30 END CTAB
M  END
>  <SMILES>
CC(NN)C1=CC=CC=C1

>  <INCHI_IDENTIFIER>
InChI=1S/C8H12N2/c1-7(10-9)8-5-3-2-4-6-8/h2-7,10H,9H2,1H3

>  <INCHI_KEY>
HHRZAEJMHSGZNP-UHFFFAOYSA-N

>  <FORMULA>
C8H12N2

>  <MOLECULAR_WEIGHT>
136.198

>  <DRUGBANK_ID>
DB09248

>  <DRUG_GROUPS>
withdrawn

>  <GENERIC_NAME>
Mebanazine

>  <SYNONYMS>


$$$$
Compound 53
Actelion Java MolfileCreator 2.0

  0  0  0  0  0  0              0 V3000
M  V30 BEGIN CTAB
M  V30 COUNTS 10 9 0 0 0
M  V30 BEGIN ATOM
M  V30 1 N 0.0 0.0 0.0 0
M  V30 2 N 1.257 0.7636 0.0 0
M  V30 3 C -1.3039 0.7636 0.0 0 CFG=2
M  V30 4 C -2.6079 0.0352 0.0 0
M  V30 5 C -1.3274 2.2673 0.0 0
M  V30 6 C -3.9119 0.7988 0.0 0
M  V30 7 C -5.2159 0.0704 0.0 0
M  V30 8 C -6.5199 0.834 0.0 0
M  V30 9 C -7.8239 0.1057 0.0 0
M  V30 10 C -9.1279 0.8693 0.0 0
M  V30 END ATOM
M  V30 BEGIN BOND
M  V30 1 1 1 2
M  V30 2 1 3 1 CFG=3
M  V30 3 1 3 4
M  V30 4 1 3 5
M  V30 5 1 4 6
M  V30 6 1 6 7
M  V30 7 1 7 8
M  V30 8 1 8 9
M  V30 9 1 9 10
M  V30 END BOND
M  V30 BEGIN COLLECTION
M  V30 MDLV30/STERAC1 ATOMS=(1 3)
M  V30 END COLLECTION
M  V30 END CTAB
M  END
>  <SMILES>
CCCCCCC(C)NN

>  <INCHI_IDENTIFIER>
InChI=1S/C8H20N2/c1-3-4-5-6-7-8(2)10-9/h8,10H,3-7,9H2,1-2H3

>  <INCHI_KEY>
FODQIVGFADUBKE-UHFFFAOYSA-N

>  <FORMULA>
C8H20N2

>  <MOLECULAR_WEIGHT>
144.262

>  <DRUGBANK_ID>
DB09249

>  <DRUG_GROUPS>
withdrawn

>  <GENERIC_NAME>
Octamoxin

>  <SYNONYMS>
2-octylhydrazine

$$$$
Compound 54
Actelion Java MolfileCreator 2.0

  0  0  0  0  0  0              0 V3000
M  V30 BEGIN CTAB
M  V30 COUNTS 11 11 0 0 0
M  V30 BEGIN ATOM
M  V30 1 N 0.0 0.0 0.0 0
M  V30 2 N 1.0484 -0.6596 0.0 0
M  V30 3 C -0.0235 1.5078 0.0 0 CFG=2
M  V30 4 C -1.3665 2.3089 0.0 0
M  V30 5 C 1.284 2.3089 0.0 0
M  V30 6 C -2.7094 1.5549 0.0 0
M  V30 7 C -2.733 0.0942 0.0 0
M  V30 8 C -4.017 2.3206 0.0 0
M  V30 9 C -4.0406 -0.6714 0.0 0
M  V30 10 C -5.3835 1.6021 0.0 0
M  V30 11 C -5.4071 0.0824 0.0 0
M  V30 END ATOM
M  V30 BEGIN BOND
M  V30 1 1 1 2
M  V30 2 1 3 1 CFG=3
M  V30 3 1 3 4
M  V30 4 1 3 5
M  V30 5 1 4 6
M  V30 6 2 6 7
M  V30 7 1 6 8
M  V30 8 1 7 9
M  V30 9 2 8 10
M  V30 10 2 9 11
M  V30 11 1 10 11
M  V30 END BOND
M  V30 BEGIN COLLECTION
M  V30 MDLV30/STERAC1 ATOMS=(1 3)
M  V30 END COLLECTION
M  V30 END CTAB
M  END
>  <SMILES>
CC(CC1=CC=CC=C1)NN

>  <INCHI_IDENTIFIER>
InChI=1S/C9H14N2/c1-8(11-10)7-9-5-3-2-4-6-9/h2-6,8,11H,7,10H2,1H3

>  <INCHI_KEY>
VXTWEDPZMSVFEF-UHFFFAOYSA-N

>  <FORMULA>
C9H14N2

>  <MOLECULAR_WEIGHT>
150.225

>  <DRUGBANK_ID>
DB09250

>  <DRUG_GROUPS>
withdrawn

>  <GENERIC_NAME>
Pheniprazine

>  <SYNONYMS>


$$$$
Compound 55
Actelion Java MolfileCreator 2.0

  0  0  0  0  0  0              0 V3000
M  V30 BEGIN CTAB
M  V30 COUNTS 12 12 0 0 0
M  V30 BEGIN ATOM
M  V30 1 O 0.0 0.0 0.0 0
M  V30 2 C -0.0239 -1.4828 0.0 0
M  V30 3 C 1.2795 0.7653 0.0 0
M  V30 4 C 1.2556 -2.2123 0.0 0
M  V30 5 C -1.3513 -2.2123 0.0 0
M  V30 6 C 1.2556 2.296 0.0 0 CFG=1
M  V30 7 C 1.2317 -3.6951 0.0 0
M  V30 8 C -1.3752 -3.6951 0.0 0
M  V30 9 N 2.5351 3.0613 0.0 0
M  V30 10 C -0.0717 3.0613 0.0 0
M  V30 11 C -0.0956 -4.4246 0.0 0
M  V30 12 N 2.5112 4.592 0.0 0
M  V30 END ATOM
M  V30 BEGIN BOND
M  V30 1 1 1 2
M  V30 2 1 1 3
M  V30 3 2 2 4
M  V30 4 1 2 5
M  V30 5 1 3 6
M  V30 6 1 4 7
M  V30 7 2 5 8
M  V30 8 1 6 9 CFG=3
M  V30 9 1 6 10
M  V30 10 2 7 11
M  V30 11 1 9 12
M  V30 12 1 8 11
M  V30 END BOND
M  V30 BEGIN COLLECTION
M  V30 MDLV30/STERAC1 ATOMS=(1 6)
M  V30 END COLLECTION
M  V30 END CTAB
M  END
>  <SMILES>
[H]N([H])N([H])C(C)COC1=CC=CC=C1

>  <INCHI_IDENTIFIER>
InChI=1S/C9H14N2O/c1-8(11-10)7-12-9-5-3-2-4-6-9/h2-6,8,11H,7,10H2,1H3

>  <INCHI_KEY>
QNEXFJFTGQBXBJ-UHFFFAOYSA-N

>  <FORMULA>
C9H14N2O

>  <MOLECULAR_WEIGHT>
166.224

>  <DRUGBANK_ID>
DB09251

>  <DRUG_GROUPS>
withdrawn

>  <GENERIC_NAME>
Phenoxypropazine

>  <SYNONYMS>


$$$$
Compound 56
Actelion Java MolfileCreator 2.0

  0  0  0  0  0  0              0 V3000
M  V30 BEGIN CTAB
M  V30 COUNTS 15 15 0 0 0
M  V30 BEGIN ATOM
M  V30 1 O 0.0 0.0 0.0 0
M  V30 2 C -1.3234 0.763 0.0 0
M  V30 3 N -2.6468 0.0357 0.0 0
M  V30 4 C -1.3472 2.2891 0.0 0
M  V30 5 N -2.6706 -1.4426 0.0 0
M  V30 6 C -2.8733 2.3129 0.0 0
M  V30 7 C 0.1311 2.3129 0.0 0
M  V30 8 C -1.371 3.8152 0.0 0
M  V30 9 C -3.994 -2.1699 0.0 0
M  V30 10 C -4.0178 -3.6482 0.0 0
M  V30 11 C -2.7421 -4.3874 0.0 0
M  V30 12 C -5.3412 -4.3874 0.0 0
M  V30 13 C -2.766 -5.8658 0.0 0
M  V30 14 C -5.3651 -5.8658 0.0 0
M  V30 15 C -4.0894 -6.605 0.0 0
M  V30 END ATOM
M  V30 BEGIN BOND
M  V30 1 2 1 2
M  V30 2 1 2 3
M  V30 3 1 2 4
M  V30 4 1 3 5
M  V30 5 1 4 6
M  V30 6 1 4 7
M  V30 7 1 4 8
M  V30 8 1 5 9
M  V30 9 1 9 10
M  V30 10 2 10 11
M  V30 11 1 10 12
M  V30 12 1 11 13
M  V30 13 2 12 14
M  V30 14 2 13 15
M  V30 15 1 14 15
M  V30 END BOND
M  V30 END CTAB
M  END
>  <SMILES>
[H]N(CC1=CC=CC=C1)N([H])C(=O)C(C)(C)C

>  <INCHI_IDENTIFIER>
InChI=1S/C12H18N2O/c1-12(2,3)11(15)14-13-9-10-7-5-4-6-8-10/h4-8,13H,9H2,1-3H3,(H,14,15)

>  <INCHI_KEY>
FWWDFDMCZLOXQI-UHFFFAOYSA-N

>  <FORMULA>
C12H18N2O

>  <MOLECULAR_WEIGHT>
206.289

>  <DRUGBANK_ID>
DB09252

>  <DRUG_GROUPS>
withdrawn

>  <GENERIC_NAME>
Pivhydrazine

>  <SYNONYMS>
Pivalylbenzhydrazine; Pivazide

$$$$
Compound 57
Actelion Java MolfileCreator 2.0

  0  0  0  0  0  0              0 V3000
M  V30 BEGIN CTAB
M  V30 COUNTS 15 16 0 0 0
M  V30 BEGIN ATOM
M  V30 1 O 0.0 0.0 0.0 0
M  V30 2 C -1.4368 -0.4357 0.0 0
M  V30 3 C 0.8479 -1.1895 0.0 0
M  V30 4 C -1.4604 -1.9079 0.0 0
M  V30 5 C -2.7559 0.3297 0.0 0
M  V30 6 O -0.0471 -2.3673 0.0 0
M  V30 7 C -2.7795 -2.6264 0.0 0
M  V30 8 C -4.075 -0.3886 0.0 0
M  V30 9 C -4.0986 -1.8608 0.0 0
M  V30 10 C -5.3824 0.3768 0.0 0
M  V30 11 C -6.7015 -0.3415 0.0 0
M  V30 12 C -8.0088 0.4239 0.0 0 CFG=1
M  V30 13 N -8.0324 1.9315 0.0 0
M  V30 14 C -9.3279 -0.2944 0.0 0
M  V30 15 N -9.3515 2.7088 0.0 0
M  V30 END ATOM
M  V30 BEGIN BOND
M  V30 1 1 1 2
M  V30 2 1 1 3
M  V30 3 2 2 4
M  V30 4 1 2 5
M  V30 5 1 3 6
M  V30 6 1 4 7
M  V30 7 2 5 8
M  V30 8 2 7 9
M  V30 9 1 8 10
M  V30 10 1 10 11
M  V30 11 1 11 12
M  V30 12 1 12 13 CFG=3
M  V30 13 1 12 14
M  V30 14 1 13 15
M  V30 15 1 4 6
M  V30 16 1 8 9
M  V30 END BOND
M  V30 BEGIN COLLECTION
M  V30 MDLV30/STERAC1 ATOMS=(1 12)
M  V30 END COLLECTION
M  V30 END CTAB
M  END
>  <SMILES>
CC(CCC1=CC2=C(OCO2)C=C1)NN

>  <INCHI_IDENTIFIER>
InChI=1S/C11H16N2O2/c1-8(13-12)2-3-9-4-5-10-11(6-9)15-7-14-10/h4-6,8,13H,2-3,7,12H2,1H3

>  <INCHI_KEY>
IBWPUTAKVGZXRB-UHFFFAOYSA-N

>  <FORMULA>
C11H16N2O2

>  <MOLECULAR_WEIGHT>
208.261

>  <DRUGBANK_ID>
DB09253

>  <DRUG_GROUPS>
withdrawn

>  <GENERIC_NAME>
Safrazine

>  <SYNONYMS>
Safra

$$$$
Compound 58
Actelion Java MolfileCreator 2.0

  0  0  0  0  0  0              0 V3000
M  V30 BEGIN CTAB
M  V30 COUNTS 15 16 0 0 0
M  V30 BEGIN ATOM
M  V30 1 O 0.0 0.0 0.0 0
M  V30 2 C -1.3066 -0.7192 0.0 0
M  V30 3 O -2.6253 0.0479 0.0 0
M  V30 4 N -1.3306 -2.1938 0.0 0
M  V30 5 C -3.956 -0.6833 0.0 0
M  V30 6 C -2.6493 -2.925 0.0 0
M  V30 7 C -0.0719 -2.913 0.0 0
M  V30 8 C -3.98 -2.1578 0.0 0
M  V30 9 C -5.2867 0.0839 0.0 0
M  V30 10 C 1.1748 -2.1458 0.0 0
M  V30 11 C -5.3106 -2.8891 0.0 0
M  V30 12 C -6.6173 -0.6473 0.0 0
M  V30 13 O 1.1508 -0.6113 0.0 0
M  V30 14 N 2.4215 -2.8651 0.0 0
M  V30 15 C -6.6413 -2.1218 0.0 0
M  V30 END ATOM
M  V30 BEGIN BOND
M  V30 1 2 1 2
M  V30 2 1 2 3
M  V30 3 1 2 4
M  V30 4 1 3 5
M  V30 5 1 4 6
M  V30 6 1 4 7
M  V30 7 2 5 8
M  V30 8 1 5 9
M  V30 9 1 7 10
M  V30 10 1 8 11
M  V30 11 2 9 12
M  V30 12 2 10 13
M  V30 13 1 10 14
M  V30 14 2 11 15
M  V30 15 1 6 8
M  V30 16 1 12 15
M  V30 END BOND
M  V30 END CTAB
M  END
>  <SMILES>
NC(=O)CN1CC2=CC=CC=C2OC1=O

>  <INCHI_IDENTIFIER>
InChI=1S/C10H10N2O3/c11-9(13)6-12-5-7-3-1-2-4-8(7)15-10(12)14/h1-4H,5-6H2,(H2,11,13)

>  <INCHI_KEY>
KYCBWEZLKCTALM-UHFFFAOYSA-N

>  <FORMULA>
C10H10N2O3

>  <MOLECULAR_WEIGHT>
206.201

>  <DRUGBANK_ID>
DB09254

>  <DRUG_GROUPS>
withdrawn

>  <GENERIC_NAME>
Caroxazone

>  <SYNONYMS>


$$$$
Compound 59
Actelion Java MolfileCreator 2.0

  0  0  0  0  0  0              0 V3000
M  V30 BEGIN CTAB
M  V30 COUNTS 16 16 0 0 0
M  V30 BEGIN ATOM
M  V30 1 I 0.0 0.0 0.0 0
M  V30 2 C -1.3411 -0.7121 0.0 0
M  V30 3 C -1.3886 -2.1838 0.0 0
M  V30 4 C -2.6467 0.0356 0.0 0
M  V30 5 N 0.0118 -2.8722 0.0 0
M  V30 6 C -2.6704 -2.9553 0.0 0
M  V30 7 C -3.9641 -0.7002 0.0 0
M  V30 8 C -2.6704 1.5548 0.0 0
M  V30 9 C -0.0118 -4.2608 0.0 0
M  V30 10 I -2.6942 -4.427 0.0 0
M  V30 11 C -3.9879 -2.1719 0.0 0
M  V30 12 I -5.3528 0.083 0.0 0
M  V30 13 O -3.9879 2.3144 0.0 0
M  V30 14 O -1.4123 2.3144 0.0 0
M  V30 15 O -1.3293 -5.0086 0.0 0
M  V30 16 C 1.2818 -4.9255 0.0 0
M  V30 END ATOM
M  V30 BEGIN BOND
M  V30 1 1 1 2
M  V30 2 2 2 3
M  V30 3 1 2 4
M  V30 4 1 3 5
M  V30 5 1 3 6
M  V30 6 2 4 7
M  V30 7 1 4 8
M  V30 8 1 5 9
M  V30 9 1 6 10
M  V30 10 2 6 11
M  V30 11 1 7 12
M  V30 12 2 8 13
M  V30 13 1 8 14
M  V30 14 2 9 15
M  V30 15 1 9 16
M  V30 16 1 7 11
M  V30 END BOND
M  V30 END CTAB
M  END
>  <SMILES>
CC(=O)NC1=C(I)C(C(O)=O)=C(I)C=C1I

>  <INCHI_IDENTIFIER>
InChI=1S/C9H6I3NO3/c1-3(14)13-8-5(11)2-4(10)6(7(8)12)9(15)16/h2H,1H3,(H,13,14)(H,15,16)

>  <INCHI_KEY>
GNOGSFBXBWBTIG-UHFFFAOYSA-N

>  <FORMULA>
C9H6I3NO3

>  <MOLECULAR_WEIGHT>
556.864

>  <DRUGBANK_ID>
DB09347

>  <DRUG_GROUPS>
withdrawn

>  <GENERIC_NAME>
Acetrizoic acid

>  <SYNONYMS>
Acide acetrizoique; Urokonic acid

$$$$
Compound 60
Actelion Java MolfileCreator 2.0

  0  0  0  0  0  0              0 V3000
M  V30 BEGIN CTAB
M  V30 COUNTS 25 27 0 0 0
M  V30 BEGIN ATOM
M  V30 1 S 0.0 0.0 0.0 0
M  V30 2 C -1.3249 -0.7281 0.0 0 CFG=2
M  V30 3 C 1.2772 -0.7281 0.0 0
M  V30 4 N -1.3488 -2.2082 0.0 0
M  V30 5 C -2.8528 -0.7042 0.0 0 CFG=2
M  V30 6 C 1.2533 -2.2082 0.0 0
M  V30 7 C -0.0716 -2.9364 0.0 0
M  V30 8 C -2.8767 -2.1844 0.0 0
M  V30 9 N -4.1778 0.0596 0.0 0
M  V30 10 O 2.5425 -2.9483 0.0 0
M  V30 11 C -0.0954 -4.4165 0.0 0
M  V30 12 O -4.2017 -2.9125 0.0 0
M  V30 13 C -5.5028 -0.6684 0.0 0
M  V30 14 C 3.8197 -2.1844 0.0 0
M  V30 15 O -1.4324 -5.1566 0.0 0
M  V30 16 O 1.1578 -5.1327 0.0 0
M  V30 17 O -5.5266 -2.1486 0.0 0
M  V30 18 C -6.8277 0.0954 0.0 0 CFG=1
M  V30 19 N -6.8516 1.6233 0.0 0
M  V30 20 C -8.1646 -0.6326 0.0 0
M  V30 21 C -8.1885 -2.1008 0.0 0
M  V30 22 C -9.4896 0.1313 0.0 0
M  V30 23 C -9.5135 -2.8289 0.0 0
M  V30 24 C -10.8026 -0.5968 0.0 0
M  V30 25 C -10.8265 -2.065 0.0 0
M  V30 END ATOM
M  V30 BEGIN BOND
M  V30 1 1 2 1 CFG=3
M  V30 2 1 1 3
M  V30 3 1 2 4
M  V30 4 1 2 5
M  V30 5 1 3 6
M  V30 6 1 4 7
M  V30 7 1 4 8
M  V30 8 1 5 9 CFG=3
M  V30 9 1 6 10
M  V30 10 1 7 11
M  V30 11 2 8 12
M  V30 12 1 9 13
M  V30 13 1 10 14
M  V30 14 2 11 15
M  V30 15 1 11 16
M  V30 16 2 13 17
M  V30 17 1 13 18
M  V30 18 1 18 19 CFG=3
M  V30 19 1 18 20
M  V30 20 2 20 21
M  V30 21 1 20 22
M  V30 22 1 21 23
M  V30 23 1 22 24
M  V30 24 1 23 25
M  V30 25 1 5 8
M  V30 26 2 6 7
M  V30 27 2 24 25
M  V30 END BOND
M  V30 BEGIN COLLECTION
M  V30 MDLV30/STERAC1 ATOMS=(3 2 5 18)
M  V30 END COLLECTION
M  V30 END CTAB
M  END
>  <SMILES>
[H][C@]12SCC(OC)=C(N1C(=O)[C@H]2NC(=O)[C@H](N)C1=CCC=CC1)C(O)=O

>  <INCHI_IDENTIFIER>
InChI=1S/C16H19N3O5S/c1-24-9-7-25-15-11(14(21)19(15)12(9)16(22)23)18-13(20)10(17)8-5-3-2-4-6-8/h2-3,6,10-11,15H,4-5,7,17H2,1H3,(H,18,20)(H,22,23)/t10-,11-,15-/m1/s1

>  <INCHI_KEY>
RDMOROXKXONCAL-UEKVPHQBSA-N

>  <FORMULA>
C16H19N3O5S

>  <MOLECULAR_WEIGHT>
365.4

>  <DRUGBANK_ID>
DB11367

>  <DRUG_GROUPS>
withdrawn

>  <GENERIC_NAME>
Cefroxadine

>  <SYNONYMS>
Cefroxadine; cefroxadino

$$$$
Compound 61
Actelion Java MolfileCreator 2.0

  0  0  0  0  0  0              0 V3000
M  V30 BEGIN CTAB
M  V30 COUNTS 95 99 0 0 0
M  V30 BEGIN ATOM
M  V30 1 S 0.0 0.0 0.0 0
M  V30 2 C 1.2739 0.7619 0.0 0
M  V30 3 C -1.3215 0.7619 0.0 0
M  V30 4 C 2.5478 0.0357 0.0 0
M  V30 5 C -2.643 0.0357 0.0 0
M  V30 6 O 2.524 -1.4405 0.0 0
M  V30 7 N 3.8217 0.7976 0.0 0
M  V30 8 C -3.9645 0.7976 0.0 0 CFG=2
M  V30 9 C 5.0956 0.0714 0.0 0
M  V30 10 N -5.2861 0.0714 0.0 0
M  V30 11 C -3.9884 2.3216 0.0 0
M  V30 12 C 6.3695 0.8333 0.0 0 CFG=2
M  V30 13 C -5.3099 -1.4048 0.0 0
M  V30 14 O -2.7144 3.0835 0.0 0
M  V30 15 N -5.3099 3.0835 0.0 0
M  V30 16 N 6.3457 2.3573 0.0 0
M  V30 17 C 7.6434 0.1071 0.0 0
M  V30 18 O -4.036 -2.1311 0.0 0
M  V30 19 C -6.6314 -2.1311 0.0 0 CFG=1
M  V30 20 C -5.3337 4.6075 0.0 0 CFG=2
M  V30 21 C -6.6314 2.3573 0.0 0
M  V30 22 O 7.6196 -1.3691 0.0 0
M  V30 23 N 8.9173 0.8691 0.0 0
M  V30 24 N -7.953 -1.3691 0.0 0
M  V30 25 C -6.6552 -3.6074 0.0 0
M  V30 26 C -6.6552 5.3694 0.0 0
M  V30 27 C -4.0598 5.3694 0.0 0
M  V30 28 C 10.1912 0.1428 0.0 0 CFG=2
M  V30 29 C -9.2745 -2.0954 0.0 0
M  V30 30 C -7.9768 -4.3336 0.0 0
M  V30 31 C -5.3813 -4.3336 0.0 0
M  V30 32 O -6.679 6.8933 0.0 0
M  V30 33 N -7.9768 4.6432 0.0 0
M  V30 34 C -4.0836 6.8933 0.0 0
M  V30 35 C 11.4651 0.9048 0.0 0
M  V30 36 C 10.1674 -1.3334 0.0 0
M  V30 37 O -9.2983 -3.5717 0.0 0
M  V30 38 C -10.596 -1.3334 0.0 0 CFG=1
M  V30 39 C -9.2983 5.4051 0.0 0 CFG=2
M  V30 40 C -5.4051 7.6553 0.0 0
M  V30 41 C -2.8097 7.6553 0.0 0
M  V30 42 O 11.4413 2.4287 0.0 0
M  V30 43 N 12.739 0.1785 0.0 0
M  V30 44 C 11.4413 -2.0596 0.0 0
M  V30 45 N -10.6198 0.1904 0.0 0
M  V30 46 C -11.9175 -2.0596 0.0 0
M  V30 47 C -10.6198 4.6789 0.0 0
M  V30 48 C -9.3221 6.9291 0.0 0
M  V30 49 C -5.4289 9.1792 0.0 0
M  V30 50 C -2.8335 9.1792 0.0 0
M  V30 51 C 14.013 0.9405 0.0 0 CFG=2
M  V30 52 C 11.4175 -3.5359 0.0 0
M  V30 53 C -11.9414 0.9524 0.0 0
M  V30 54 C -11.9414 -3.5359 0.0 0
M  V30 55 O -11.9414 5.4409 0.0 0
M  V30 56 N -10.6436 3.2026 0.0 0
M  V30 57 C -10.6436 7.691 0.0 0
M  V30 58 C -4.155 9.9412 0.0 0
M  V30 59 C 15.2869 0.2143 0.0 0
M  V30 60 C 13.9891 2.4644 0.0 0
M  V30 61 C 12.6914 -4.2622 0.0 0
M  V30 62 O -13.2629 0.2262 0.0 0
M  V30 63 C -11.9652 2.4763 0.0 0 CFG=2
M  V30 64 C -13.2629 -4.2622 0.0 0
M  V30 65 C -11.9652 6.9648 0.0 0
M  V30 66 C -10.6675 9.215 0.0 0
M  V30 67 O 15.263 -1.262 0.0 0
M  V30 68 N 16.5608 0.9762 0.0 0
M  V30 69 S 15.263 3.2264 0.0 0
M  V30 70 N 12.6676 -5.7385 0.0 0
M  V30 71 C -13.2867 3.2383 0.0 0
M  V30 72 C -13.2867 -5.7385 0.0 0
M  V30 73 C -13.2867 7.7267 0.0 0
M  V30 74 C -11.989 9.9769 0.0 0
M  V30 75 C 17.8347 0.25 0.0 0 CFG=2
M  V30 76 C -14.6082 2.5121 0.0 0
M  V30 77 N -14.6082 -6.4647 0.0 0
M  V30 78 C -13.3105 9.2507 0.0 0
M  V30 79 C 17.8109 -1.2262 0.0 0
M  V30 80 C 19.1086 1.0119 0.0 0
M  V30 81 C -16.0012 3.155 0.0 0
M  V30 82 C -14.7868 1.0477 0.0 0
M  V30 83 O -14.632 10.0126 0.0 0
M  V30 84 O 19.0848 -1.9525 0.0 0
M  V30 85 N 16.4893 -1.9525 0.0 0
M  V30 86 C 20.3825 0.2857 0.0 0
M  V30 87 C -17.0251 2.0715 0.0 0
M  V30 88 C -16.4893 4.6075 0.0 0
M  V30 89 N -16.275 0.7619 0.0 0
M  V30 90 C 21.6564 1.0477 0.0 0
M  V30 91 C -18.5133 2.4049 0.0 0
M  V30 92 C -17.9775 4.9408 0.0 0
M  V30 93 C 22.9303 0.3214 0.0 0
M  V30 94 C -19.0014 3.8574 0.0 0
M  V30 95 N 24.2042 1.0834 0.0 0
M  V30 END ATOM
M  V30 BEGIN BOND
M  V30 1 1 1 2
M  V30 2 1 1 3
M  V30 3 1 2 4
M  V30 4 1 3 5
M  V30 5 2 4 6
M  V30 6 1 4 7
M  V30 7 1 8 5 CFG=3
M  V30 8 1 7 9
M  V30 9 1 8 10
M  V30 10 1 8 11
M  V30 11 1 9 12
M  V30 12 1 10 13
M  V30 13 2 11 14
M  V30 14 1 11 15
M  V30 15 1 12 16 CFG=3
M  V30 16 1 12 17
M  V30 17 2 13 18
M  V30 18 1 13 19
M  V30 19 1 15 20
M  V30 20 1 15 21
M  V30 21 2 17 22
M  V30 22 1 17 23
M  V30 23 1 19 24
M  V30 24 1 19 25 CFG=3
M  V30 25 1 20 26
M  V30 26 1 20 27 CFG=3
M  V30 27 1 28 23 CFG=3
M  V30 28 1 24 29
M  V30 29 1 25 30
M  V30 30 1 25 31
M  V30 31 2 26 32
M  V30 32 1 26 33
M  V30 33 1 27 34
M  V30 34 1 28 35
M  V30 35 1 28 36
M  V30 36 2 29 37
M  V30 37 1 29 38
M  V30 38 1 33 39
M  V30 39 2 34 40
M  V30 40 1 34 41
M  V30 41 2 35 42
M  V30 42 1 35 43
M  V30 43 1 36 44
M  V30 44 1 38 45
M  V30 45 1 38 46 CFG=3
M  V30 46 1 39 47
M  V30 47 1 39 48 CFG=3
M  V30 48 1 40 49
M  V30 49 2 41 50
M  V30 50 1 51 43 CFG=1
M  V30 51 1 44 52
M  V30 52 1 45 53
M  V30 53 1 46 54
M  V30 54 2 47 55
M  V30 55 1 47 56
M  V30 56 1 48 57
M  V30 57 2 49 58
M  V30 58 1 51 59
M  V30 59 1 51 60
M  V30 60 1 52 61
M  V30 61 2 53 62
M  V30 62 1 53 63
M  V30 63 1 54 64
M  V30 64 2 57 65
M  V30 65 1 57 66
M  V30 66 2 59 67
M  V30 67 1 59 68
M  V30 68 1 60 69
M  V30 69 1 61 70
M  V30 70 1 63 71 CFG=1
M  V30 71 1 64 72
M  V30 72 1 65 73
M  V30 73 2 66 74
M  V30 74 1 75 68 CFG=1
M  V30 75 1 71 76
M  V30 76 1 72 77
M  V30 77 2 73 78
M  V30 78 1 75 79
M  V30 79 1 75 80
M  V30 80 1 76 81
M  V30 81 2 76 82
M  V30 82 1 78 83
M  V30 83 2 79 84
M  V30 84 1 79 85
M  V30 85 1 80 86
M  V30 86 2 81 87
M  V30 87 1 81 88
M  V30 88 1 82 89
M  V30 89 1 86 90
M  V30 90 1 87 91
M  V30 91 2 88 92
M  V30 92 1 90 93
M  V30 93 2 91 94
M  V30 94 1 93 95
M  V30 95 1 50 58
M  V30 96 1 56 63
M  V30 97 1 74 78
M  V30 98 1 87 89
M  V30 99 1 92 94
M  V30 END BOND
M  V30 BEGIN COLLECTION
M  V30 MDLV30/STEABS ATOMS=(10 8 12 19 20 28 38 39 51 63 75)
M  V30 END COLLECTION
M  V30 END CTAB
M  END
>  <SMILES>
CC(C)[C@@H]1NC(=O)[C@H](CCCCN)NC(=O)[C@@H](CC2=CNC3=CC=CC=C23)NC(=O)[C@H](CC2=CC=C(O)C=C2)NC(=O)[C@H](CC2=CC=CC=C2)N(C)C(=O)[C@H](CCSCC(=O)NC[C@H](N)C(=O)N[C@@H](CCCCN)C(=O)N[C@@H](CS)C(=O)N[C@@H](CCCCN)C(N)=O)NC1=O

>  <INCHI_IDENTIFIER>
InChI=1S/C65H96N16O12S2/c1-38(2)55-64(92)76-49(26-30-95-37-54(83)72-35-44(69)57(85)74-47(20-10-13-28-67)58(86)79-52(36-94)62(90)73-46(56(70)84)19-9-12-27-66)65(93)81(3)53(32-39-15-5-4-6-16-39)63(91)78-50(31-40-22-24-42(82)25-23-40)60(88)77-51(33-41-34-71-45-18-8-7-17-43(41)45)61(89)75-48(59(87)80-55)21-11-14-29-68/h4-8,15-18,22-25,34,38,44,46-53,55,71,82,94H,9-14,19-21,26-33,35-37,66-69H2,1-3H3,(H2,70,84)(H,72,83)(H,73,90)(H,74,85)(H,75,89)(H,76,92)(H,77,88)(H,78,91)(H,79,86)(H,80,87)/t44-,46-,47-,48-,49-,50-,51+,52-,53-,55-/m0/s1

>  <INCHI_KEY>
XXXSJQLZVNKRKX-YQRDHHIGSA-N

>  <FORMULA>
C65H96N16O12S2

>  <MOLECULAR_WEIGHT>
1357.7

>  <DRUGBANK_ID>
DB11628

>  <DRUG_GROUPS>
withdrawn

>  <GENERIC_NAME>
Depreotide

>  <SYNONYMS>


$$$$
