Compound 1
Actelion Java MolfileCreator 2.0

  0  0  0  0  0  0              0 V3000
M  V30 BEGIN CTAB
M  V30 COUNTS 32 34 0 0 0
M  V30 BEGIN ATOM
M  V30 1 O 0.0 0.0 0.0 0
M  V30 2 C -0.0244 -1.4777 0.0 0
M  V30 3 N -1.3556 -2.1983 0.0 0
M  V30 4 C 1.2579 -2.1983 0.0 0
M  V30 5 C -1.38 -3.6761 0.0 0
M  V30 6 N 2.5769 -1.3678 0.0 0
M  V30 7 C 1.2335 -3.6761 0.0 0
M  V30 8 N -0.0977 -4.3967 0.0 0
M  V30 9 N -2.7113 -4.3967 0.0 0
M  V30 10 C 3.9082 -2.1128 0.0 0
M  V30 11 N 2.5525 -4.4578 0.0 0
M  V30 12 C 3.8837 -3.6517 0.0 0
M  V30 13 C 5.1783 -1.3434 0.0 0
M  V30 14 N 6.4607 -2.064 0.0 0
M  V30 15 C 7.7309 -1.2945 0.0 0
M  V30 16 C 9.0133 -2.0151 0.0 0
M  V30 17 C 7.7065 0.232 0.0 0
M  V30 18 C 10.2835 -1.2457 0.0 0
M  V30 19 C 8.9766 1.0014 0.0 0
M  V30 20 C 10.259 0.2809 0.0 0
M  V30 21 C 11.5292 1.0503 0.0 0
M  V30 22 O 11.5048 2.5769 0.0 0
M  V30 23 N 12.8116 0.3297 0.0 0
M  V30 24 C 14.0818 1.0991 0.0 0 CFG=2
M  V30 25 C 15.3641 0.3786 0.0 0
M  V30 26 C 14.0573 2.6258 0.0 0
M  V30 27 O 15.3397 -1.0991 0.0 0
M  V30 28 O 16.6343 1.148 0.0 0
M  V30 29 C 15.3275 3.3952 0.0 0
M  V30 30 C 15.3031 4.9219 0.0 0
M  V30 31 O 13.9718 5.6913 0.0 0
M  V30 32 O 16.5732 5.6913 0.0 0
M  V30 END ATOM
M  V30 BEGIN BOND
M  V30 1 2 1 2
M  V30 2 1 2 3
M  V30 3 1 2 4
M  V30 4 2 3 5
M  V30 5 1 4 6
M  V30 6 2 4 7
M  V30 7 1 5 8
M  V30 8 1 5 9
M  V30 9 1 6 10
M  V30 10 1 7 11
M  V30 11 1 10 12
M  V30 12 1 10 13
M  V30 13 1 13 14
M  V30 14 1 14 15
M  V30 15 2 15 16
M  V30 16 1 15 17
M  V30 17 1 16 18
M  V30 18 2 17 19
M  V30 19 2 18 20
M  V30 20 1 20 21
M  V30 21 2 21 22
M  V30 22 1 21 23
M  V30 23 1 24 23 CFG=1
M  V30 24 1 24 25
M  V30 25 1 24 26
M  V30 26 2 25 27
M  V30 27 1 25 28
M  V30 28 1 26 29
M  V30 29 1 29 30
M  V30 30 2 30 31
M  V30 31 1 30 32
M  V30 32 1 7 8
M  V30 33 1 11 12
M  V30 34 1 19 20
M  V30 END BOND
M  V30 BEGIN COLLECTION
M  V30 MDLV30/STEABS ATOMS=(1 24)
M  V30 END COLLECTION
M  V30 END CTAB
M  END
>  <SMILES>
NC1=NC(=O)C2=C(NCC(CNC3=CC=C(C=C3)C(=O)N[C@@H](CCC(O)=O)C(O)=O)N2)N1

>  <INCHI_IDENTIFIER>
InChI=1S/C19H23N7O6/c20-19-25-15-14(17(30)26-19)23-11(8-22-15)7-21-10-3-1-9(2-4-10)16(29)24-12(18(31)32)5-6-13(27)28/h1-4,11-12,21,23H,5-8H2,(H,24,29)(H,27,28)(H,31,32)(H4,20,22,25,26,30)/t11?,12-/m0/s1

>  <INCHI_KEY>
MSTNYGQPCMXVAQ-KIYNQFGBSA-N

>  <FORMULA>
C19H23N7O6

>  <MOLECULAR_WEIGHT>
445.4292

>  <DRUGBANK_ID>
DB00116

>  <DRUG_GROUPS>
nutraceutical

>  <GENERIC_NAME>
Tetrahydrofolic acid

>  <SYNONYMS>
5,6,7,8-tetrahydrofolate; 5,6,7,8-tetrahydrofolic acid; Tetrahydrofolate

$$$$
Compound 2
Actelion Java MolfileCreator 2.0

  0  0  0  0  0  0              0 V3000
M  V30 BEGIN CTAB
M  V30 COUNTS 14 13 0 0 0
M  V30 BEGIN ATOM
M  V30 1 N 0.0 0.0 0.0 0
M  V30 2 C -1.3297 -0.7272 0.0 0
M  V30 3 C 1.2881 -0.7272 0.0 0
M  V30 4 C -2.6594 0.0415 0.0 0
M  V30 5 C 2.5763 0.0415 0.0 0
M  V30 6 C -3.9892 -0.6856 0.0 0
M  V30 7 C 3.8645 -0.6856 0.0 0
M  V30 8 N -5.3189 0.0831 0.0 0
M  V30 9 C 5.1527 0.0831 0.0 0
M  V30 10 N 6.4409 -0.644 0.0 0
M  V30 11 C 7.7291 0.1246 0.0 0
M  V30 12 C 9.0172 -0.6025 0.0 0
M  V30 13 C 10.3054 0.1662 0.0 0
M  V30 14 N 11.5936 -0.5609 0.0 0
M  V30 END ATOM
M  V30 BEGIN BOND
M  V30 1 1 1 2
M  V30 2 1 1 3
M  V30 3 1 2 4
M  V30 4 1 3 5
M  V30 5 1 4 6
M  V30 6 1 5 7
M  V30 7 1 6 8
M  V30 8 1 7 9
M  V30 9 1 9 10
M  V30 10 1 10 11
M  V30 11 1 11 12
M  V30 12 1 12 13
M  V30 13 1 13 14
M  V30 END BOND
M  V30 END CTAB
M  END
>  <SMILES>
NCCCNCCCCNCCCN

>  <INCHI_IDENTIFIER>
InChI=1S/C10H26N4/c11-5-3-9-13-7-1-2-8-14-10-4-6-12/h13-14H,1-12H2

>  <INCHI_KEY>
PFNFFQXMRSDOHW-UHFFFAOYSA-N

>  <FORMULA>
C10H26N4

>  <MOLECULAR_WEIGHT>
202.3402

>  <DRUGBANK_ID>
DB00127

>  <DRUG_GROUPS>
experimental; nutraceutical

>  <GENERIC_NAME>
Spermine

>  <SYNONYMS>
4,9-diaza-1,12-dodecanediamine; 4,9-diazadodecane-1,12-diamine; Musculamine; N,N'-Bis(3-aminopropyl)-1,4-butanediamine; Spermina; Spermine

$$$$
Compound 3
Actelion Java MolfileCreator 2.0

  0  0  0  0  0  0              0 V3000
M  V30 BEGIN CTAB
M  V30 COUNTS 12 12 0 0 0
M  V30 BEGIN ATOM
M  V30 1 O 0.0 0.0 0.0 0
M  V30 2 C 1.286 -0.7314 0.0 0
M  V30 3 C 1.2624 -2.218 0.0 0
M  V30 4 C -0.0707 -2.9495 0.0 0
M  V30 5 C 2.5484 -2.9495 0.0 0
M  V30 6 O -1.404 -2.1591 0.0 0
M  V30 7 C -0.0943 -4.4361 0.0 0
M  V30 8 C 2.5248 -4.4361 0.0 0
M  V30 9 C 3.8344 -2.1591 0.0 0
M  V30 10 N 1.1916 -5.1676 0.0 0
M  V30 11 C -1.4276 -5.1676 0.0 0
M  V30 12 O 5.1204 -2.8906 0.0 0
M  V30 END ATOM
M  V30 BEGIN BOND
M  V30 1 2 1 2
M  V30 2 1 2 3
M  V30 3 2 3 4
M  V30 4 1 3 5
M  V30 5 1 4 6
M  V30 6 1 4 7
M  V30 7 2 5 8
M  V30 8 1 5 9
M  V30 9 2 7 10
M  V30 10 1 7 11
M  V30 11 1 9 12
M  V30 12 1 8 10
M  V30 END BOND
M  V30 END CTAB
M  END
>  <SMILES>
CC1=NC=C(CO)C(C=O)=C1O

>  <INCHI_IDENTIFIER>
InChI=1S/C8H9NO3/c1-5-8(12)7(4-11)6(3-10)2-9-5/h2,4,10,12H,3H2,1H3

>  <INCHI_KEY>
RADKZDMFGJYCBB-UHFFFAOYSA-N

>  <FORMULA>
C8H9NO3

>  <MOLECULAR_WEIGHT>
167.162

>  <DRUGBANK_ID>
DB00147

>  <DRUG_GROUPS>
experimental; nutraceutical

>  <GENERIC_NAME>
Pyridoxal

>  <SYNONYMS>
2-methyl-3-hydroxy-4-formyl-5-hydroxymethylpyridine; 3-hydroxy-5-(hydroxymethyl)-2-methyl-4-pyridinecarboxaldehyde; 3-hydroxy-5-(hydroxymethyl)-2-methylisonicotinaldehyde; 3-hydroxy-5-(hydroxymethyl)-2-methylpyridine-4-carboxaldehyde; Piridoxal; Pyridoxaldehyde

$$$$
Compound 4
Actelion Java MolfileCreator 2.0

  0  0  0  0  0  0              0 V3000
M  V30 BEGIN CTAB
M  V30 COUNTS 6 5 0 0 0
M  V30 BEGIN ATOM
M  V30 1 O 0.0 0.0 0.0 0
M  V30 2 C -0.0235 -1.4853 0.0 0
M  V30 3 O 1.2613 -2.2044 0.0 0
M  V30 4 C -1.3556 -2.2044 0.0 0 CFG=1
M  V30 5 N -1.3792 -3.6897 0.0 0
M  V30 6 C -2.6877 -1.4264 0.0 0
M  V30 END ATOM
M  V30 BEGIN BOND
M  V30 1 2 1 2
M  V30 2 1 2 3
M  V30 3 1 2 4
M  V30 4 1 4 5 CFG=1
M  V30 5 1 4 6
M  V30 END BOND
M  V30 BEGIN COLLECTION
M  V30 MDLV30/STERAC1 ATOMS=(1 4)
M  V30 END COLLECTION
M  V30 END CTAB
M  END
>  <SMILES>
C[C@H](N)C(O)=O

>  <INCHI_IDENTIFIER>
InChI=1S/C3H7NO2/c1-2(4)3(5)6/h2H,4H2,1H3,(H,5,6)/t2-/m0/s1

>  <INCHI_KEY>
QNAYBMKLOCPYGJ-REOHCLBHSA-N

>  <FORMULA>
C3H7NO2

>  <MOLECULAR_WEIGHT>
89.0932

>  <DRUGBANK_ID>
DB00160

>  <DRUG_GROUPS>
nutraceutical

>  <GENERIC_NAME>
Alanine

>  <SYNONYMS>
(2S)-2-aminopropanoic acid; (S)-2-aminopropanoic acid; (S)-alanine; Alanina; Alanine; Alaninum; L-2-Aminopropionic acid; L-Alanin; L-alanine; L-alpha-Alanine; L-α-alanine

$$$$
Compound 5
Actelion Java MolfileCreator 2.0

  0  0  0  0  0  0              0 V3000
M  V30 BEGIN CTAB
M  V30 COUNTS 8 8 0 0 0
M  V30 BEGIN ATOM
M  V30 1 O 0.0 0.0 0.0 0
M  V30 2 C -1.0986 -0.9805 0.0 0
M  V30 3 O -0.8387 -2.3981 0.0 0
M  V30 4 C -2.5635 -0.4843 0.0 0 CFG=1
M  V30 5 N -3.7921 -1.3349 0.0 0
M  V30 6 C -3.0479 0.9569 0.0 0
M  V30 7 C -5.0208 -0.4371 0.0 0
M  V30 8 C -4.56 0.9805 0.0 0
M  V30 END ATOM
M  V30 BEGIN BOND
M  V30 1 2 1 2
M  V30 2 1 2 3
M  V30 3 1 4 2 CFG=1
M  V30 4 1 4 5
M  V30 5 1 4 6
M  V30 6 1 5 7
M  V30 7 1 6 8
M  V30 8 1 7 8
M  V30 END BOND
M  V30 BEGIN COLLECTION
M  V30 MDLV30/STERAC1 ATOMS=(1 4)
M  V30 END COLLECTION
M  V30 END CTAB
M  END
>  <SMILES>
OC(=O)[C@@H]1CCCN1

>  <INCHI_IDENTIFIER>
InChI=1S/C5H9NO2/c7-5(8)4-2-1-3-6-4/h4,6H,1-3H2,(H,7,8)/t4-/m0/s1

>  <INCHI_KEY>
ONIBWKKTOPOVIA-BYPYZUCNSA-N

>  <FORMULA>
C5H9NO2

>  <MOLECULAR_WEIGHT>
115.1305

>  <DRUGBANK_ID>
DB00172

>  <DRUG_GROUPS>
nutraceutical

>  <GENERIC_NAME>
Proline

>  <SYNONYMS>
(-)-2-Pyrrolidinecarboxylic acid; (−)-(S)-proline; (−)-2-pyrrolidinecarboxylic acid; (−)-proline; (2S)-pyrrolidine-2-carboxylic acid; (S)-2-Carboxypyrrolidine; (S)-2-Pyrrolidinecarboxylic acid; (S)-pyrrolidine-2-carboxylic acid; 2-Pyrrolidinecarboxylic acid; L-(−)-proline; L-alpha-pyrrolidinecarboxylic acid; L-Prolin; L-Proline; L-pyrrolidine-2-carboxylic acid; L-α-pyrrolidinecarboxylic acid; P; Prolina; Proline; Prolinum

$$$$
Compound 6
Actelion Java MolfileCreator 2.0

  0  0  0  0  0  0              0 V3000
M  V30 BEGIN CTAB
M  V30 COUNTS 1 0 0 0 0
M  V30 BEGIN ATOM
M  V30 1 Ca 0.0 0.0 0.0 0 VAL=-1
M  V30 END ATOM
M  V30 BEGIN BOND
M  V30 END BOND
M  V30 END CTAB
M  END
>  <SMILES>
[Ca]

>  <INCHI_IDENTIFIER>
InChI=1S/Ca

>  <INCHI_KEY>
OYPRJOBELJOOCE-UHFFFAOYSA-N

>  <FORMULA>
Ca

>  <MOLECULAR_WEIGHT>
40.078

>  <DRUGBANK_ID>
DB01373

>  <DRUG_GROUPS>
nutraceutical

>  <GENERIC_NAME>
Calcium

>  <SYNONYMS>
Calcio; Calcium, elemental; Elemental calcium; Kalzium

$$$$
Compound 7
Actelion Java MolfileCreator 2.0

  0  0  0  0  0  0              0 V3000
M  V30 BEGIN CTAB
M  V30 COUNTS 39 40 0 0 0
M  V30 BEGIN ATOM
M  V30 1 O 0.0 0.0 0.0 0
M  V30 2 C 1.0063 1.0673 0.0 0
M  V30 3 C 0.4116 2.4548 0.0 0
M  V30 4 C 2.3329 0.5336 0.0 0 CFG=2
M  V30 5 C 0.9453 3.8424 0.0 0
M  V30 6 C -1.0825 2.4853 0.0 0
M  V30 7 C 1.357 2.4853 0.0 0
M  V30 8 C 3.6594 1.1283 0.0 0
M  V30 9 C 2.3024 -0.8996 0.0 0
M  V30 10 O -0.1219 4.9097 0.0 0
M  V30 11 C 2.2719 4.4371 0.0 0 CFG=2
M  V30 12 C -1.8602 3.7814 0.0 0
M  V30 13 O 2.7903 2.5158 0.0 0
M  V30 14 C 4.1931 2.5158 0.0 0 CFG=1
M  V30 15 C 1.0063 -1.6162 0.0 0
M  V30 16 C 2.2414 5.9313 0.0 0
M  V30 17 C 3.5984 3.9034 0.0 0 CFG=1
M  V30 18 C -3.3545 3.8119 0.0 0
M  V30 19 C 5.6264 2.5463 0.0 0
M  V30 20 C 0.9758 -3.0495 0.0 0
M  V30 21 O 0.9453 6.709 0.0 0
M  V30 22 C 3.4764 6.709 0.0 0
M  V30 23 C 4.3151 5.1994 0.0 0
M  V30 24 C 5.0317 3.9339 0.0 0
M  V30 25 C -4.1321 5.108 0.0 0
M  V30 26 C -4.1321 2.5768 0.0 0
M  V30 27 C 6.343 1.3113 0.0 0
M  V30 28 C -0.3202 -3.7662 0.0 0
M  V30 29 C 2.2109 -3.7662 0.0 0
M  V30 30 C 3.4459 8.2033 0.0 0
M  V30 31 C 4.7115 5.9923 0.0 0
M  V30 32 C 5.7484 5.2299 0.0 0
M  V30 33 C 7.7763 1.3418 0.0 0
M  V30 34 C 6.465 6.526 0.0 0
M  V30 35 C 8.493 0.1067 0.0 0
M  V30 36 C 8.493 2.6378 0.0 0
M  V30 37 C 7.8983 6.5565 0.0 0
M  V30 38 C 8.6149 7.8526 0.0 0
M  V30 39 C 8.6149 5.3214 0.0 0
M  V30 END ATOM
M  V30 BEGIN BOND
M  V30 1 2 1 2
M  V30 2 1 2 3
M  V30 3 1 2 4
M  V30 4 2 3 5
M  V30 5 1 3 6
M  V30 6 1 4 7
M  V30 7 1 4 8
M  V30 8 1 4 9 CFG=1
M  V30 9 1 5 10
M  V30 10 1 5 11
M  V30 11 1 6 12
M  V30 12 2 7 13
M  V30 13 1 8 14
M  V30 14 1 9 15
M  V30 15 1 11 16 CFG=1
M  V30 16 1 11 17
M  V30 17 2 12 18
M  V30 18 1 14 19 CFG=1
M  V30 19 2 15 20
M  V30 20 2 16 21
M  V30 21 1 16 22
M  V30 22 1 17 23
M  V30 23 1 17 24 CFG=1
M  V30 24 1 18 25
M  V30 25 1 18 26
M  V30 26 1 19 27
M  V30 27 1 20 28
M  V30 28 1 20 29
M  V30 29 1 22 30
M  V30 30 1 22 31
M  V30 31 1 23 32
M  V30 32 2 27 33
M  V30 33 1 32 34
M  V30 34 1 33 35
M  V30 35 1 33 36
M  V30 36 2 34 37
M  V30 37 1 37 38
M  V30 38 1 37 39
M  V30 39 1 7 11
M  V30 40 1 14 17
M  V30 END BOND
M  V30 BEGIN COLLECTION
M  V30 MDLV30/STERAC1 ATOMS=(4 4 11 14 17)
M  V30 END COLLECTION
M  V30 END CTAB
M  END
>  <SMILES>
CC(C)C(=O)[C@@]12C(O)=C(CC=C(C)C)C(=O)[C@@](CC=C(C)C)(C[C@H](CC=C(C)C)[C@@]1(C)CCC=C(C)C)C2=O

>  <INCHI_IDENTIFIER>
InChI=1S/C35H52O4/c1-22(2)13-12-19-33(11)27(16-14-23(3)4)21-34(20-18-25(7)8)30(37)28(17-15-24(5)6)31(38)35(33,32(34)39)29(36)26(9)10/h13-15,18,26-27,38H,12,16-17,19-21H2,1-11H3/t27-,33+,34+,35-/m0/s1

>  <INCHI_KEY>
IWBJJCOKGLUQIZ-HQKKAZOISA-N

>  <FORMULA>
C35H52O4

>  <MOLECULAR_WEIGHT>
536.797

>  <DRUGBANK_ID>
DB01892

>  <DRUG_GROUPS>
nutraceutical

>  <GENERIC_NAME>
Hyperforin

>  <SYNONYMS>
Hiperforina; Hyperforine

$$$$
Compound 8
Actelion Java MolfileCreator 2.0

  0  0  0  0  0  0              0 V3000
M  V30 BEGIN CTAB
M  V30 COUNTS 11 12 0 0 0
M  V30 BEGIN ATOM
M  V30 1 O 0.0 0.0 0.0 0
M  V30 2 C -1.4167 0.8296 0.0 0 CFG=1
M  V30 3 C -0.0255 -1.5826 0.0 0
M  V30 4 C -2.8334 0.051 0.0 0
M  V30 5 C -2.0293 -0.1659 0.0 0
M  V30 6 C -1.4422 2.4633 0.0 0
M  V30 7 C -1.4422 -2.3612 0.0 0 CFG=2
M  V30 8 C 1.5571 -1.5571 0.0 0
M  V30 9 C 0.753 -2.9483 0.0 0
M  V30 10 C -2.8589 -1.5315 0.0 0
M  V30 11 C -2.0548 -1.3018 0.0 0
M  V30 END ATOM
M  V30 BEGIN BOND
M  V30 1 1 1 2
M  V30 2 1 1 3
M  V30 3 1 2 4
M  V30 4 1 2 5
M  V30 5 1 2 6 CFG=1
M  V30 6 1 3 7
M  V30 7 1 3 8
M  V30 8 1 3 9
M  V30 9 1 4 10
M  V30 10 1 5 11
M  V30 11 1 7 10 CFG=3
M  V30 12 1 7 11
M  V30 END BOND
M  V30 BEGIN COLLECTION
M  V30 MDLV30/STEABS ATOMS=(2 2 7)
M  V30 END COLLECTION
M  V30 END CTAB
M  END
>  <SMILES>
C[C@@]12CC[C@@H](CC1)C(C)(C)O2

>  <INCHI_IDENTIFIER>
InChI=1S/C10H18O/c1-9(2)8-4-6-10(3,11-9)7-5-8/h8H,4-7H2,1-3H3/t8-,10+

>  <INCHI_KEY>
WEEGYLXZBRQIMU-WAAGHKOSSA-N

>  <FORMULA>
C10H18O

>  <MOLECULAR_WEIGHT>
154.2493

>  <DRUGBANK_ID>
DB03852

>  <DRUG_GROUPS>
experimental; nutraceutical

>  <GENERIC_NAME>
Eucalyptol

>  <SYNONYMS>
1,8-cineol; 1,8-Cineole; 1,8-epoxy-p-menthane; 1,8-oxido-p-menthane; Cajeputol; Cineole; Eucalyptol; Zineol

$$$$
Compound 9
Actelion Java MolfileCreator 2.0

  0  0  0  0  0  0              0 V3000
M  V30 BEGIN CTAB
M  V30 COUNTS 29 34 0 0 0
M  V30 BEGIN ATOM
M  V30 1 O 0.0 0.0 0.0 0
M  V30 2 C -0.0343 -1.1332 0.0 0
M  V30 3 O -0.9787 -2.9018 0.0 0
M  V30 4 C 0.206 -2.4039 0.0 0 CFG=2
M  V30 5 C -0.704 -5.0653 0.0 0 CFG=1
M  V30 6 O 1.5968 -1.9059 0.0 0
M  V30 7 C -1.2534 -1.9059 0.0 0 CFG=2
M  V30 8 C 0.1717 -3.8634 0.0 0 CFG=2
M  V30 9 C 0.1373 -6.2501 0.0 0
M  V30 10 C 2.4382 -3.0907 0.0 0 CFG=1
M  V30 11 O -1.3221 -0.0515 0.0 0
M  V30 12 C -2.1635 -3.0907 0.0 0 CFG=2
M  V30 13 C -2.1635 -0.6524 0.0 0 CFG=1
M  V30 14 C 1.5625 -4.2926 0.0 0 CFG=1
M  V30 15 C -1.2878 -4.2926 0.0 0
M  V30 16 C 1.5281 -5.7522 0.0 0 CFG=2
M  V30 17 O 3.829 -3.52 0.0 0
M  V30 18 O -3.623 -2.5927 0.0 0
M  V30 19 C -3.623 -1.0817 0.0 0
M  V30 20 C -2.318 0.8241 0.0 0
M  V30 21 C 2.4039 -5.4774 0.0 0 CFG=2
M  V30 22 C 1.5968 -6.9713 0.0 0
M  V30 23 C 3.7947 -4.9795 0.0 0
M  V30 24 O -4.8764 -0.1717 0.0 0
M  V30 25 O 3.0907 -6.6794 0.0 0
M  V30 26 C 0.6524 -8.1389 0.0 0
M  V30 27 C 1.8372 -8.4308 0.0 0
M  V30 28 C 2.7644 -7.8126 0.0 0
M  V30 29 O 4.8249 -5.6835 0.0 0
M  V30 END ATOM
M  V30 BEGIN BOND
M  V30 1 2 1 2
M  V30 2 1 2 3
M  V30 3 1 2 4
M  V30 4 1 5 3 CFG=1
M  V30 5 1 4 6 CFG=3
M  V30 6 1 4 7
M  V30 7 1 4 8
M  V30 8 1 5 9
M  V30 9 1 10 6 CFG=3
M  V30 10 1 7 11 CFG=1
M  V30 11 1 7 12
M  V30 12 1 7 13
M  V30 13 1 8 14
M  V30 14 1 8 15 CFG=3
M  V30 15 1 9 16
M  V30 16 1 10 17
M  V30 17 1 12 18 CFG=3
M  V30 18 1 13 19
M  V30 19 1 13 20 CFG=1
M  V30 20 1 14 21 CFG=3
M  V30 21 1 16 22 CFG=3
M  V30 22 1 17 23
M  V30 23 2 19 24
M  V30 24 1 21 25 CFG=3
M  V30 25 1 22 26
M  V30 26 1 22 27
M  V30 27 1 22 28
M  V30 28 2 23 29
M  V30 29 1 5 8
M  V30 30 1 10 14
M  V30 31 1 12 15
M  V30 32 1 14 16
M  V30 33 1 18 19
M  V30 34 1 21 23
M  V30 END BOND
M  V30 BEGIN COLLECTION
M  V30 MDLV30/STEABS ATOMS=(10 4 5 7 8 10 12 13 14 16 21)
M  V30 END COLLECTION
M  V30 END CTAB
M  END
>  <SMILES>
C[C@@H]1C(=O)O[C@H]2C[C@@]34[C@H]5C[C@@H](C(C)(C)C)[C@@]33[C@@H](O)C(=O)O[C@H]3O[C@@]4(C(=O)O5)[C@@]12O

>  <INCHI_IDENTIFIER>
InChI=1S/C20H24O9/c1-7-12(22)26-10-6-17-9-5-8(16(2,3)4)18(17)11(21)13(23)28-15(18)29-20(17,14(24)27-9)19(7,10)25/h7-11,15,21,25H,5-6H2,1-4H3/t7-,8+,9-,10+,11+,15+,17-,18+,19-,20-/m1/s1

>  <INCHI_KEY>
FPUXKXIZEIDQKW-VKMVSBOZSA-N

>  <FORMULA>
C20H24O9

>  <MOLECULAR_WEIGHT>
408.3992

>  <DRUGBANK_ID>
DB06743

>  <DRUG_GROUPS>
nutraceutical

>  <GENERIC_NAME>
Ginkgolide A

>  <SYNONYMS>
Ginkgolide-A

$$$$
Compound 10
Actelion Java MolfileCreator 2.0

  0  0  0  0  0  0              0 V3000
M  V30 BEGIN CTAB
M  V30 COUNTS 30 35 0 0 0
M  V30 BEGIN ATOM
M  V30 1 O 0.0 0.0 0.0 0
M  V30 2 C -0.0343 -1.1341 0.0 0
M  V30 3 O -0.9795 -2.9041 0.0 0
M  V30 4 C 0.2062 -2.4058 0.0 0 CFG=2
M  V30 5 C -0.7045 -5.0694 0.0 0 CFG=1
M  V30 6 O 1.5981 -1.9074 0.0 0
M  V30 7 C -1.2544 -1.9074 0.0 0 CFG=2
M  V30 8 C 0.1718 -3.8664 0.0 0 CFG=2
M  V30 9 C 0.1374 -6.2551 0.0 0
M  V30 10 C 2.4401 -3.0931 0.0 0 CFG=1
M  V30 11 O -1.3232 -0.0515 0.0 0
M  V30 12 C -2.1652 -3.0931 0.0 0 CFG=2
M  V30 13 C -2.1652 -0.653 0.0 0 CFG=1
M  V30 14 C 1.5637 -4.2961 0.0 0 CFG=1
M  V30 15 C -1.2888 -4.2961 0.0 0 CFG=2
M  V30 16 C 1.5294 -5.7567 0.0 0 CFG=2
M  V30 17 O 3.8321 -3.5228 0.0 0
M  V30 18 O -3.6259 -2.5948 0.0 0
M  V30 19 C -3.6259 -1.0826 0.0 0
M  V30 20 C -2.3198 0.8248 0.0 0
M  V30 21 C 2.4058 -5.4818 0.0 0 CFG=2
M  V30 22 O -2.0277 -5.5677 0.0 0
M  V30 23 C 1.5981 -6.9768 0.0 0
M  V30 24 C 3.7977 -4.9834 0.0 0
M  V30 25 O -4.8803 -0.1718 0.0 0
M  V30 26 O 3.0931 -6.6847 0.0 0
M  V30 27 C 0.3436 -7.8189 0.0 0
M  V30 28 C 1.5637 -8.4375 0.0 0
M  V30 29 C 2.7666 -7.8189 0.0 0
M  V30 30 O 4.8288 -5.688 0.0 0
M  V30 END ATOM
M  V30 BEGIN BOND
M  V30 1 2 1 2
M  V30 2 1 2 3
M  V30 3 1 2 4
M  V30 4 1 5 3 CFG=1
M  V30 5 1 4 6 CFG=3
M  V30 6 1 4 7
M  V30 7 1 4 8
M  V30 8 1 5 9
M  V30 9 1 10 6 CFG=3
M  V30 10 1 7 11 CFG=1
M  V30 11 1 7 12
M  V30 12 1 7 13
M  V30 13 1 8 14
M  V30 14 1 8 15 CFG=3
M  V30 15 1 9 16
M  V30 16 1 10 17
M  V30 17 1 12 18 CFG=3
M  V30 18 1 13 19
M  V30 19 1 13 20 CFG=1
M  V30 20 1 14 21 CFG=3
M  V30 21 1 15 22 CFG=1
M  V30 22 1 16 23 CFG=3
M  V30 23 1 17 24
M  V30 24 2 19 25
M  V30 25 1 21 26 CFG=3
M  V30 26 1 23 27
M  V30 27 1 23 28
M  V30 28 1 23 29
M  V30 29 2 24 30
M  V30 30 1 5 8
M  V30 31 1 10 14
M  V30 32 1 12 15
M  V30 33 1 14 16
M  V30 34 1 18 19
M  V30 35 1 21 24
M  V30 END BOND
M  V30 BEGIN COLLECTION
M  V30 MDLV30/STEABS ATOMS=(11 4 5 7 8 10 12 13 14 15 16 21)
M  V30 END COLLECTION
M  V30 END CTAB
M  END
>  <SMILES>
C[C@@H]1C(=O)O[C@H]2[C@H](O)[C@@]34[C@H]5C[C@@H](C(C)(C)C)[C@@]33[C@@H](O)C(=O)O[C@H]3O[C@@]4(C(=O)O5)[C@@]12O

>  <INCHI_IDENTIFIER>
InChI=1S/C20H24O10/c1-6-12(23)28-11-9(21)18-8-5-7(16(2,3)4)17(18)10(22)13(24)29-15(17)30-20(18,14(25)27-8)19(6,11)26/h6-11,15,21-22,26H,5H2,1-4H3/t6-,7+,8-,9+,10+,11+,15+,17+,18+,19-,20-/m1/s1

>  <INCHI_KEY>
SQOJOAFXDQDRGF-MMQTXUMRSA-N

>  <FORMULA>
C20H24O10

>  <MOLECULAR_WEIGHT>
424.3986

>  <DRUGBANK_ID>
DB06744

>  <DRUG_GROUPS>
nutraceutical

>  <GENERIC_NAME>
ginkgolide-B

>  <SYNONYMS>


$$$$
Compound 11
Actelion Java MolfileCreator 2.0

  0  0  0  0  0  0              0 V3000
M  V30 BEGIN CTAB
M  V30 COUNTS 31 36 0 0 0
M  V30 BEGIN ATOM
M  V30 1 O 0.0 0.0 0.0 0
M  V30 2 C -0.0344 -1.1362 0.0 0
M  V30 3 O -0.9813 -2.9095 0.0 0
M  V30 4 C 0.2065 -2.4102 0.0 0 CFG=2
M  V30 5 C -0.7058 -5.0788 0.0 0 CFG=1
M  V30 6 O 1.6011 -1.911 0.0 0
M  V30 7 C -1.2567 -1.911 0.0 0 CFG=2
M  V30 8 C 0.1721 -3.8736 0.0 0 CFG=2
M  V30 9 C 0.1377 -6.2667 0.0 0 CFG=2
M  V30 10 C 2.4447 -3.0989 0.0 0 CFG=1
M  V30 11 O -1.3256 -0.0516 0.0 0
M  V30 12 C -2.1692 -3.0989 0.0 0 CFG=2
M  V30 13 C -2.1692 -0.6542 0.0 0 CFG=1
M  V30 14 C 1.5666 -4.304 0.0 0 CFG=1
M  V30 15 C -1.2912 -4.304 0.0 0 CFG=2
M  V30 16 O -0.7747 -7.3169 0.0 0
M  V30 17 C 1.5322 -5.7674 0.0 0 CFG=2
M  V30 18 O 3.8392 -3.5293 0.0 0
M  V30 19 O -3.6326 -2.5996 0.0 0
M  V30 20 C -3.6326 -1.0846 0.0 0
M  V30 21 C -2.3242 0.8263 0.0 0
M  V30 22 C 2.4102 -5.492 0.0 0 CFG=2
M  V30 23 O -2.0315 -5.578 0.0 0
M  V30 24 C 1.6011 -6.9898 0.0 0
M  V30 25 C 3.8048 -4.9927 0.0 0
M  V30 26 O -4.8894 -0.1721 0.0 0
M  V30 27 O 3.0989 -6.6971 0.0 0
M  V30 28 C 0.6542 -8.1605 0.0 0
M  V30 29 C 1.8421 -8.4532 0.0 0
M  V30 30 C 2.7718 -7.8334 0.0 0
M  V30 31 O 4.8377 -5.6986 0.0 0
M  V30 END ATOM
M  V30 BEGIN BOND
M  V30 1 2 1 2
M  V30 2 1 2 3
M  V30 3 1 2 4
M  V30 4 1 5 3 CFG=1
M  V30 5 1 4 6 CFG=3
M  V30 6 1 4 7
M  V30 7 1 4 8
M  V30 8 1 5 9
M  V30 9 1 10 6 CFG=3
M  V30 10 1 7 11 CFG=1
M  V30 11 1 7 12
M  V30 12 1 7 13
M  V30 13 1 8 14
M  V30 14 1 8 15 CFG=3
M  V30 15 1 9 16 CFG=1
M  V30 16 1 9 17
M  V30 17 1 10 18
M  V30 18 1 12 19 CFG=3
M  V30 19 1 13 20
M  V30 20 1 13 21 CFG=1
M  V30 21 1 14 22 CFG=3
M  V30 22 1 15 23 CFG=1
M  V30 23 1 17 24 CFG=3
M  V30 24 1 18 25
M  V30 25 2 20 26
M  V30 26 1 22 27 CFG=3
M  V30 27 1 24 28
M  V30 28 1 24 29
M  V30 29 1 24 30
M  V30 30 2 25 31
M  V30 31 1 5 8
M  V30 32 1 10 14
M  V30 33 1 12 15
M  V30 34 1 14 17
M  V30 35 1 19 20
M  V30 36 1 22 25
M  V30 END BOND
M  V30 BEGIN COLLECTION
M  V30 MDLV30/STEABS ATOMS=(12 4 5 7 8 9 10 12 13 14 15 17 22)
M  V30 END COLLECTION
M  V30 END CTAB
M  END
>  <SMILES>
C[C@@H]1C(=O)O[C@H]2[C@H](O)[C@]34[C@@H]5OC(=O)[C@]3(O[C@@H]3OC(=O)[C@H](O)[C@]43[C@@H]([C@H]5O)C(C)(C)C)[C@@]12O

>  <INCHI_IDENTIFIER>
InChI=1S/C20H24O11/c1-5-12(24)28-11-8(22)18-10-6(21)7(16(2,3)4)17(18)9(23)13(25)30-15(17)31-20(18,14(26)29-10)19(5,11)27/h5-11,15,21-23,27H,1-4H3/t5-,6-,7+,8+,9+,10-,11+,15+,17+,18-,19-,20-/m1/s1

>  <INCHI_KEY>
AMOGMTLMADGEOQ-DTDWCABLSA-N

>  <FORMULA>
C20H24O11

>  <MOLECULAR_WEIGHT>
440.398

>  <DRUGBANK_ID>
DB06745

>  <DRUG_GROUPS>
nutraceutical

>  <GENERIC_NAME>
ginkgolide-C

>  <SYNONYMS>


$$$$
Compound 12
Actelion Java MolfileCreator 2.0

  0  0  0  0  0  0              0 V3000
M  V30 BEGIN CTAB
M  V30 COUNTS 30 35 0 0 0
M  V30 BEGIN ATOM
M  V30 1 O 0.0 0.0 0.0 0
M  V30 2 C -0.0344 -1.1357 0.0 0
M  V30 3 O -0.9808 -2.908 0.0 0
M  V30 4 C 0.2064 -2.409 0.0 0 CFG=2
M  V30 5 C -0.7055 -5.0762 0.0 0 CFG=1
M  V30 6 O 1.6003 -1.91 0.0 0
M  V30 7 C -1.2561 -1.91 0.0 0 CFG=2
M  V30 8 C 0.172 -3.8717 0.0 0 CFG=2
M  V30 9 C 0.1376 -6.2635 0.0 0 CFG=2
M  V30 10 C 2.4434 -3.0973 0.0 0 CFG=1
M  V30 11 O -1.3249 -0.0516 0.0 0
M  V30 12 C -2.1681 -3.0973 0.0 0 CFG=2
M  V30 13 C -2.1681 -0.6538 0.0 0 CFG=1
M  V30 14 C 1.5658 -4.3019 0.0 0 CFG=1
M  V30 15 C -1.2905 -4.3019 0.0 0
M  V30 16 O -0.7743 -7.3132 0.0 0
M  V30 17 C 1.5314 -5.7645 0.0 0 CFG=2
M  V30 18 O 3.8373 -3.5275 0.0 0
M  V30 19 O -3.6308 -2.5983 0.0 0
M  V30 20 C -3.6308 -1.084 0.0 0
M  V30 21 C -2.323 0.8259 0.0 0
M  V30 22 C 2.409 -5.4892 0.0 0 CFG=2
M  V30 23 C 1.6003 -6.9862 0.0 0
M  V30 24 C 3.8028 -4.9902 0.0 0
M  V30 25 O -4.8869 -0.172 0.0 0
M  V30 26 O 3.0973 -6.6937 0.0 0
M  V30 27 C 0.6538 -8.1564 0.0 0
M  V30 28 C 1.8412 -8.4489 0.0 0
M  V30 29 C 2.7704 -7.8294 0.0 0
M  V30 30 O 4.8353 -5.6957 0.0 0
M  V30 END ATOM
M  V30 BEGIN BOND
M  V30 1 2 1 2
M  V30 2 1 2 3
M  V30 3 1 2 4
M  V30 4 1 5 3 CFG=1
M  V30 5 1 4 6 CFG=3
M  V30 6 1 4 7
M  V30 7 1 4 8
M  V30 8 1 5 9
M  V30 9 1 10 6 CFG=3
M  V30 10 1 7 11 CFG=1
M  V30 11 1 7 12
M  V30 12 1 7 13
M  V30 13 1 8 14
M  V30 14 1 8 15 CFG=3
M  V30 15 1 9 16 CFG=1
M  V30 16 1 9 17
M  V30 17 1 10 18
M  V30 18 1 12 19 CFG=3
M  V30 19 1 13 20
M  V30 20 1 13 21 CFG=1
M  V30 21 1 14 22 CFG=3
M  V30 22 1 17 23 CFG=3
M  V30 23 1 18 24
M  V30 24 2 20 25
M  V30 25 1 22 26 CFG=3
M  V30 26 1 23 27
M  V30 27 1 23 28
M  V30 28 1 23 29
M  V30 29 2 24 30
M  V30 30 1 5 8
M  V30 31 1 10 14
M  V30 32 1 12 15
M  V30 33 1 14 17
M  V30 34 1 19 20
M  V30 35 1 22 24
M  V30 END BOND
M  V30 BEGIN COLLECTION
M  V30 MDLV30/STEABS ATOMS=(11 4 5 7 8 9 10 12 13 14 17 22)
M  V30 END COLLECTION
M  V30 END CTAB
M  END
>  <SMILES>
C[C@@H]1C(=O)O[C@H]2C[C@]34[C@@H]5OC(=O)[C@]3(O[C@@H]3OC(=O)[C@H](O)[C@]43[C@@H]([C@H]5O)C(C)(C)C)[C@@]12O

>  <INCHI_IDENTIFIER>
InChI=1S/C20H24O10/c1-6-12(23)27-7-5-17-11-8(21)9(16(2,3)4)18(17)10(22)13(24)29-15(18)30-20(17,14(25)28-11)19(6,7)26/h6-11,15,21-22,26H,5H2,1-4H3/t6-,7+,8-,9+,10+,11-,15+,17-,18+,19-,20-/m1/s1

>  <INCHI_KEY>
LMEHVEUFNRJAAV-UKWFQYJJSA-N

>  <FORMULA>
C20H24O10

>  <MOLECULAR_WEIGHT>
424.3986

>  <DRUGBANK_ID>
DB06746

>  <DRUG_GROUPS>
nutraceutical

>  <GENERIC_NAME>
ginkgolide-J

>  <SYNONYMS>


$$$$
Compound 13
Actelion Java MolfileCreator 2.0

  0  0  0  0  0  0              0 V3000
M  V30 BEGIN CTAB
M  V30 COUNTS 30 35 0 0 0
M  V30 BEGIN ATOM
M  V30 1 O 0.0 0.0 0.0 0
M  V30 2 C -0.0346 -1.1441 0.0 0
M  V30 3 O -0.9881 -2.9296 0.0 0
M  V30 4 C 0.208 -2.4269 0.0 0 CFG=1
M  V30 5 C -0.7107 -5.1139 0.0 0 CFG=1
M  V30 6 O 1.6121 -1.9242 0.0 0
M  V30 7 C 0.1733 -3.9004 0.0 0 CFG=2
M  V30 8 C -1.2654 -1.9242 0.0 0
M  V30 9 C 0.1386 -6.31 0.0 0 CFG=2
M  V30 10 C 2.4616 -3.1203 0.0 0 CFG=1
M  V30 11 C 1.5775 -4.3338 0.0 0 CFG=1
M  V30 12 C -1.3001 -4.3338 0.0 0 CFG=2
M  V30 13 C -2.1842 -3.1203 0.0 0 CFG=2
M  V30 14 C -2.1842 -0.6587 0.0 0 CFG=1
M  V30 15 O -0.78 -7.3675 0.0 0
M  V30 16 C 1.5428 -5.8073 0.0 0 CFG=2
M  V30 17 O 3.8657 -3.5537 0.0 0
M  V30 18 C 2.4269 -5.5299 0.0 0 CFG=2
M  V30 19 O -2.0455 -5.6166 0.0 0
M  V30 20 O -3.6577 -2.6176 0.0 0
M  V30 21 C -3.6577 -1.0921 0.0 0
M  V30 22 C -2.3402 0.832 0.0 0
M  V30 23 C 1.6121 -7.0381 0.0 0
M  V30 24 C 3.8311 -5.0272 0.0 0
M  V30 25 O 3.1203 -6.7434 0.0 0
M  V30 26 O -4.9232 -0.1733 0.0 0
M  V30 27 C 0.6587 -8.2169 0.0 0
M  V30 28 C 1.8548 -8.5116 0.0 0
M  V30 29 C 2.7909 -7.8876 0.0 0
M  V30 30 O 4.8712 -5.738 0.0 0
M  V30 END ATOM
M  V30 BEGIN BOND
M  V30 1 2 1 2
M  V30 2 1 2 3
M  V30 3 1 2 4
M  V30 4 1 5 3 CFG=1
M  V30 5 1 4 6 CFG=3
M  V30 6 1 4 7
M  V30 7 1 4 8
M  V30 8 1 5 9
M  V30 9 1 10 6 CFG=3
M  V30 10 1 7 11
M  V30 11 1 7 12 CFG=3
M  V30 12 1 8 13
M  V30 13 1 8 14
M  V30 14 1 9 15 CFG=1
M  V30 15 1 9 16
M  V30 16 1 10 17
M  V30 17 1 11 18 CFG=3
M  V30 18 1 12 19 CFG=1
M  V30 19 1 13 20 CFG=3
M  V30 20 1 14 21
M  V30 21 1 14 22 CFG=1
M  V30 22 1 16 23 CFG=3
M  V30 23 1 17 24
M  V30 24 1 18 25 CFG=3
M  V30 25 2 21 26
M  V30 26 1 23 27
M  V30 27 1 23 28
M  V30 28 1 23 29
M  V30 29 2 24 30
M  V30 30 1 5 7
M  V30 31 1 10 11
M  V30 32 1 11 16
M  V30 33 1 12 13
M  V30 34 1 18 24
M  V30 35 1 20 21
M  V30 END BOND
M  V30 BEGIN COLLECTION
M  V30 MDLV30/STEABS ATOMS=(11 4 5 7 9 10 11 12 13 14 16 18)
M  V30 END COLLECTION
M  V30 END CTAB
M  END
>  <SMILES>
C[C@H]1C2[C@@H](OC1=O)[C@H](O)[C@]13[C@@H]4OC(=O)[C@]21O[C@@H]1OC(=O)[C@H](O)[C@]31[C@@H]([C@H]4O)C(C)(C)C

>  <INCHI_IDENTIFIER>
InChI=1S/C20H24O10/c1-5-6-8(27-13(5)24)10(22)19-12-7(21)9(17(2,3)4)18(19)11(23)14(25)29-16(18)30-20(6,19)15(26)28-12/h5-12,16,21-23H,1-4H3/t5-,6?,7+,8+,9-,10-,11-,12+,16-,18-,19+,20+/m0/s1

>  <INCHI_KEY>
KDKROYXEHCYLJQ-FJFAJXJPSA-N

>  <FORMULA>
C20H24O10

>  <MOLECULAR_WEIGHT>
424.3986

>  <DRUGBANK_ID>
DB06747

>  <DRUG_GROUPS>
nutraceutical

>  <GENERIC_NAME>
ginkgolide-M

>  <SYNONYMS>


$$$$
Compound 14
Actelion Java MolfileCreator 2.0

  0  0  0  0  0  0              0 V3000
M  V30 BEGIN CTAB
M  V30 COUNTS 75 82 0 0 0
M  V30 BEGIN ATOM
M  V30 1 O 0.0 0.0 0.0 0
M  V30 2 C -1.317 -0.7183 0.0 0 CFG=2
M  V30 3 C -0.0359 1.5205 0.0 0 CFG=2
M  V30 4 O -1.3529 -2.191 0.0 0
M  V30 5 C -2.634 0.0359 0.0 0 CFG=1
M  V30 6 C -1.3529 2.2988 0.0 0 CFG=1
M  V30 7 C 1.2332 2.2988 0.0 0
M  V30 8 C -0.0718 -2.9094 0.0 0 CFG=1
M  V30 9 O -3.9511 -0.6944 0.0 0
M  V30 10 C -2.67 1.5445 0.0 0 CFG=1
M  V30 11 O -1.3888 3.8194 0.0 0
M  V30 12 O 1.1973 3.8314 0.0 0
M  V30 13 C -0.0838 -4.3821 0.0 0 CFG=1
M  V30 14 C 1.1853 -2.1192 0.0 0
M  V30 15 C -0.1197 -1.3888 0.0 0
M  V30 16 O -3.987 2.3108 0.0 0
M  V30 17 C 2.4544 4.6096 0.0 0 CFG=1
M  V30 18 C -1.5205 -4.8251 0.0 0 CFG=1
M  V30 19 C 0.7662 -5.5675 0.0 0
M  V30 20 C 2.4664 -2.8376 0.0 0
M  V30 21 O 3.7356 3.8793 0.0 0
M  V30 22 C 2.4185 6.1182 0.0 0 CFG=1
M  V30 23 C -1.5445 -6.2978 0.0 0 CFG=2
M  V30 24 C -2.8496 -4.0589 0.0 0 CFG=1
M  V30 25 C -0.1317 -6.7528 0.0 0
M  V30 26 C 3.7236 -2.0593 0.0 0
M  V30 27 C 4.9928 4.6455 0.0 0
M  V30 28 O 1.1015 6.8845 0.0 0
M  V30 29 C 3.6877 6.8965 0.0 0 CFG=1
M  V30 30 C -2.8615 -7.0282 0.0 0 CFG=2
M  V30 31 C -1.5684 -7.7705 0.0 0
M  V30 32 O -2.8855 -2.5383 0.0 0
M  V30 33 C -4.1666 -4.7892 0.0 0
M  V30 34 C 5.0047 -2.7658 0.0 0
M  V30 35 C 4.9568 6.1661 0.0 0 CFG=2
M  V30 36 O 3.6518 8.4171 0.0 0
M  V30 37 C -4.1786 -6.2619 0.0 0 CFG=1
M  V30 38 C -2.8735 -8.5009 0.0 0
M  V30 39 C -2.8975 -5.5076 0.0 0
M  V30 40 C 4.9928 -4.2385 0.0 0
M  V30 41 C 6.2619 -1.9875 0.0 0
M  V30 42 O 6.214 6.9444 0.0 0
M  V30 43 C -5.4837 -7.0043 0.0 0 CFG=1
M  V30 44 C -4.1786 -9.2313 0.0 0
M  V30 45 C -5.4956 -8.477 0.0 0 CFG=2
M  V30 46 C -6.8007 -6.226 0.0 0
M  V30 47 C -5.5316 -5.4837 0.0 0
M  V30 48 C -6.8007 -9.2073 0.0 0
M  V30 49 C -8.1178 -6.9803 0.0 0
M  V30 50 C -8.1178 -8.441 0.0 0 CFG=1
M  V30 51 C -8.1178 -9.9257 0.0 0
M  V30 52 C -6.8127 -10.68 0.0 0
M  V30 53 O -9.4348 -9.1834 0.0 0
M  V30 54 C -10.7519 -8.4051 0.0 0 CFG=1
M  V30 55 O -10.7519 -6.8845 0.0 0
M  V30 56 C -12.0689 -9.1235 0.0 0 CFG=1
M  V30 57 C -12.0689 -6.1063 0.0 0 CFG=2
M  V30 58 O -12.1048 -10.5962 0.0 0
M  V30 59 C -13.362 -8.3452 0.0 0 CFG=1
M  V30 60 C -13.3859 -6.8247 0.0 0 CFG=1
M  V30 61 C -12.0809 -4.5857 0.0 0
M  V30 62 C -13.4219 -11.3266 0.0 0 CFG=1
M  V30 63 O -14.691 -9.0636 0.0 0
M  V30 64 O -14.703 -6.0464 0.0 0
M  V30 65 O -13.3979 -3.8194 0.0 0
M  V30 66 O -14.7389 -10.5483 0.0 0
M  V30 67 C -13.4458 -12.7993 0.0 0 CFG=1
M  V30 68 C -16.056 -11.2906 0.0 0 CFG=2
M  V30 69 O -12.1767 -13.5296 0.0 0
M  V30 70 C -14.7629 -13.5177 0.0 0 CFG=1
M  V30 71 C -16.0799 -12.7633 0.0 0 CFG=1
M  V30 72 C -17.373 -10.5124 0.0 0
M  V30 73 O -14.7868 -14.9904 0.0 0
M  V30 74 O -17.397 -13.4937 0.0 0
M  V30 75 O -18.6901 -11.2428 0.0 0
M  V30 END ATOM
M  V30 BEGIN BOND
M  V30 1 1 1 2
M  V30 2 1 1 3
M  V30 3 1 2 4 CFG=3
M  V30 4 1 2 5
M  V30 5 1 3 6
M  V30 6 1 3 7 CFG=3
M  V30 7 1 4 8
M  V30 8 1 5 9 CFG=1
M  V30 9 1 5 10
M  V30 10 1 6 11 CFG=1
M  V30 11 1 7 12
M  V30 12 1 8 13
M  V30 13 1 8 14
M  V30 14 1 8 15 CFG=1
M  V30 15 1 10 16 CFG=3
M  V30 16 1 17 12 CFG=3
M  V30 17 1 18 13 CFG=1
M  V30 18 1 13 19 CFG=3
M  V30 19 1 14 20
M  V30 20 1 17 21
M  V30 21 1 17 22
M  V30 22 1 18 23
M  V30 23 1 18 24
M  V30 24 1 19 25
M  V30 25 1 20 26
M  V30 26 1 21 27
M  V30 27 1 22 28 CFG=1
M  V30 28 1 22 29
M  V30 29 1 23 30
M  V30 30 1 23 31 CFG=1
M  V30 31 1 24 32 CFG=3
M  V30 32 1 24 33
M  V30 33 2 26 34
M  V30 34 1 27 35
M  V30 35 1 29 36 CFG=3
M  V30 36 1 30 37
M  V30 37 1 30 38
M  V30 38 1 30 39 CFG=3
M  V30 39 1 34 40
M  V30 40 1 34 41
M  V30 41 1 35 42 CFG=3
M  V30 42 1 37 43
M  V30 43 1 38 44
M  V30 44 1 43 45
M  V30 45 1 43 46
M  V30 46 1 43 47 CFG=3
M  V30 47 1 45 48
M  V30 48 1 46 49
M  V30 49 1 48 50
M  V30 50 1 48 51
M  V30 51 1 48 52
M  V30 52 1 50 53 CFG=3
M  V30 53 1 54 53 CFG=3
M  V30 54 1 54 55
M  V30 55 1 54 56
M  V30 56 1 55 57
M  V30 57 1 56 58 CFG=1
M  V30 58 1 56 59
M  V30 59 1 57 60
M  V30 60 1 57 61 CFG=3
M  V30 61 1 62 58 CFG=3
M  V30 62 1 59 63 CFG=3
M  V30 63 1 60 64 CFG=1
M  V30 64 1 61 65
M  V30 65 1 62 66
M  V30 66 1 62 67
M  V30 67 1 66 68
M  V30 68 1 67 69 CFG=1
M  V30 69 1 67 70
M  V30 70 1 68 71
M  V30 71 1 68 72 CFG=3
M  V30 72 1 70 73 CFG=3
M  V30 73 1 71 74 CFG=1
M  V30 74 1 72 75
M  V30 75 1 6 10
M  V30 76 1 23 25
M  V30 77 1 29 35
M  V30 78 1 37 33 CFG=3
M  V30 79 1 45 44 CFG=3
M  V30 80 1 49 50
M  V30 81 1 59 60
M  V30 82 1 70 71
M  V30 END BOND
M  V30 BEGIN COLLECTION
M  V30 MDLV30/STERAC1 ATOMS=(29 2 3 5 6 8 10 13 17 18 22 23 24 29 30 35 37 43 45 50 54 56 57 59 60 62 67 68 70 71)
M  V30 END COLLECTION
M  V30 END CTAB
M  END
>  <SMILES>
[H][C@@]1(CC[C@]2(C)[C@]1([H])[C@H](O)C[C@]1([H])[C@@]3(C)CC[C@H](O[C@@H]4O[C@H](CO)[C@@H](O)[C@H](O)[C@H]4O[C@@H]4O[C@H](CO)[C@@H](O)[C@H](O)[C@H]4O)C(C)(C)[C@]3([H])CC[C@@]21C)[C@](C)(CCC=C(C)C)O[C@@H]1O[C@H](CO[C@@H]2OC[C@H](O)[C@H](O)[C@H]2O)[C@@H](O)[C@H](O)[C@H]1O

>  <INCHI_IDENTIFIER>
InChI=1S/C53H90O22/c1-23(2)10-9-14-53(8,75-47-43(67)39(63)37(61)29(72-47)22-69-45-41(65)34(58)26(57)21-68-45)24-11-16-52(7)33(24)25(56)18-31-50(5)15-13-32(49(3,4)30(50)12-17-51(31,52)6)73-48-44(40(64)36(60)28(20-55)71-48)74-46-42(66)38(62)35(59)27(19-54)70-46/h10,24-48,54-67H,9,11-22H2,1-8H3/t24-,25+,26-,27+,28+,29+,30-,31+,32-,33-,34-,35+,36+,37+,38-,39-,40-,41+,42+,43+,44+,45-,46-,47-,48-,50-,51+,52+,53-/m0/s1

>  <INCHI_KEY>
NODILNFGTFIURN-GZPRDHCNSA-N

>  <FORMULA>
C53H90O22

>  <MOLECULAR_WEIGHT>
1079.281

>  <DRUGBANK_ID>
DB06748

>  <DRUG_GROUPS>
nutraceutical

>  <GENERIC_NAME>
Ginsenoside C

>  <SYNONYMS>
ginsenoside Rb2

$$$$
Compound 15
Actelion Java MolfileCreator 2.0

  0  0  0  0  0  0              0 V3000
M  V30 BEGIN CTAB
M  V30 COUNTS 77 84 0 0 0
M  V30 BEGIN ATOM
M  V30 1 O 0.0 0.0 0.0 0
M  V30 2 C -1.3178 -0.7188 0.0 0 CFG=2
M  V30 3 C -0.0359 1.5214 0.0 0 CFG=2
M  V30 4 O -1.3537 -2.1923 0.0 0
M  V30 5 C -2.6356 0.0479 0.0 0 CFG=1
M  V30 6 C -1.3537 2.3002 0.0 0 CFG=1
M  V30 7 C 1.2339 2.3002 0.0 0
M  V30 8 C -0.0718 -2.9111 0.0 0 CFG=1
M  V30 9 O -3.9534 -0.6828 0.0 0
M  V30 10 C -2.6715 1.5574 0.0 0 CFG=1
M  V30 11 O -1.3897 3.8216 0.0 0
M  V30 12 O 1.198 3.8336 0.0 0
M  V30 13 C -0.0838 -4.3847 0.0 0 CFG=1
M  V30 14 C 1.186 -2.1205 0.0 0
M  V30 15 C -0.1198 -1.3897 0.0 0
M  V30 16 O -3.9894 2.3241 0.0 0
M  V30 17 C 2.4559 4.6123 0.0 0 CFG=1
M  V30 18 C -1.5214 -4.828 0.0 0 CFG=1
M  V30 19 C 0.7667 -5.5708 0.0 0
M  V30 20 C 2.4679 -2.8393 0.0 0
M  V30 21 O 3.7378 3.8815 0.0 0
M  V30 22 C 2.42 6.1219 0.0 0 CFG=1
M  V30 23 C -1.5454 -6.3016 0.0 0 CFG=2
M  V30 24 C -2.8512 -4.0613 0.0 0 CFG=1
M  V30 25 C -0.1317 -6.7568 0.0 0
M  V30 26 C 3.7258 -2.0606 0.0 0
M  V30 27 C 4.9957 4.6603 0.0 0 CFG=2
M  V30 28 O 1.1021 6.8886 0.0 0
M  V30 29 C 3.6899 6.9006 0.0 0 CFG=1
M  V30 30 C -2.8632 -7.0323 0.0 0 CFG=2
M  V30 31 C -1.5694 -7.7751 0.0 0
M  V30 32 O -2.8872 -2.5398 0.0 0
M  V30 33 C -4.1691 -4.792 0.0 0
M  V30 34 C 5.0077 -2.7674 0.0 0
M  V30 35 C 4.9598 6.1818 0.0 0 CFG=1
M  V30 36 C 6.2656 3.9414 0.0 0
M  V30 37 O 3.6539 8.4221 0.0 0
M  V30 38 C -4.1811 -6.2656 0.0 0 CFG=1
M  V30 39 C -2.8752 -8.5059 0.0 0
M  V30 40 C -2.8992 -5.5109 0.0 0
M  V30 41 C 4.9957 -4.241 0.0 0
M  V30 42 C 6.2656 -1.9887 0.0 0
M  V30 43 O 6.2177 6.9605 0.0 0
M  V30 44 O 6.2536 2.4679 0.0 0
M  V30 45 C -5.4869 -7.0084 0.0 0 CFG=1
M  V30 46 C -4.1811 -9.2367 0.0 0
M  V30 47 C -5.4989 -8.482 0.0 0 CFG=2
M  V30 48 C -6.8047 -6.2417 0.0 0
M  V30 49 C -5.5348 -5.4869 0.0 0
M  V30 50 C -6.8047 -9.2128 0.0 0
M  V30 51 C -8.1226 -6.9844 0.0 0
M  V30 52 C -8.1226 -8.446 0.0 0 CFG=1
M  V30 53 C -8.1226 -9.9316 0.0 0
M  V30 54 C -6.8167 -10.6863 0.0 0
M  V30 55 O -9.4404 -9.1888 0.0 0
M  V30 56 C -10.7582 -8.4101 0.0 0 CFG=1
M  V30 57 O -10.7582 -6.8886 0.0 0
M  V30 58 C -12.076 -9.1289 0.0 0 CFG=1
M  V30 59 C -12.076 -6.1099 0.0 0 CFG=2
M  V30 60 O -12.112 -10.6025 0.0 0
M  V30 61 C -13.3699 -8.3502 0.0 0 CFG=1
M  V30 62 C -13.3939 -6.8287 0.0 0 CFG=1
M  V30 63 C -12.088 -4.5884 0.0 0
M  V30 64 C -13.4298 -11.3333 0.0 0 CFG=1
M  V30 65 O -14.6997 -9.069 0.0 0
M  V30 66 O -14.7117 -6.05 0.0 0
M  V30 67 O -13.4058 -3.8097 0.0 0
M  V30 68 O -14.7476 -10.5545 0.0 0
M  V30 69 C -13.4538 -12.8068 0.0 0 CFG=1
M  V30 70 C -16.0654 -11.2973 0.0 0 CFG=2
M  V30 71 O -12.1839 -13.5376 0.0 0
M  V30 72 C -14.7716 -13.5256 0.0 0 CFG=1
M  V30 73 C -16.0894 -12.7709 0.0 0 CFG=1
M  V30 74 C -17.3833 -10.5186 0.0 0
M  V30 75 O -14.7955 -14.9992 0.0 0
M  V30 76 O -17.4072 -13.5017 0.0 0
M  V30 77 O -18.7011 -11.2494 0.0 0
M  V30 END ATOM
M  V30 BEGIN BOND
M  V30 1 1 1 2
M  V30 2 1 1 3
M  V30 3 1 2 4 CFG=3
M  V30 4 1 2 5
M  V30 5 1 3 6
M  V30 6 1 3 7 CFG=3
M  V30 7 1 4 8
M  V30 8 1 5 9 CFG=1
M  V30 9 1 5 10
M  V30 10 1 6 11 CFG=1
M  V30 11 1 7 12
M  V30 12 1 8 13
M  V30 13 1 8 14
M  V30 14 1 8 15 CFG=1
M  V30 15 1 10 16 CFG=3
M  V30 16 1 17 12 CFG=3
M  V30 17 1 18 13 CFG=1
M  V30 18 1 13 19 CFG=3
M  V30 19 1 14 20
M  V30 20 1 17 21
M  V30 21 1 17 22
M  V30 22 1 18 23
M  V30 23 1 18 24
M  V30 24 1 19 25
M  V30 25 1 20 26
M  V30 26 1 21 27
M  V30 27 1 22 28 CFG=1
M  V30 28 1 22 29
M  V30 29 1 23 30
M  V30 30 1 23 31 CFG=1
M  V30 31 1 24 32 CFG=3
M  V30 32 1 24 33
M  V30 33 2 26 34
M  V30 34 1 27 35
M  V30 35 1 27 36 CFG=3
M  V30 36 1 29 37 CFG=3
M  V30 37 1 30 38
M  V30 38 1 30 39
M  V30 39 1 30 40 CFG=3
M  V30 40 1 34 41
M  V30 41 1 34 42
M  V30 42 1 35 43 CFG=1
M  V30 43 1 36 44
M  V30 44 1 38 45
M  V30 45 1 39 46
M  V30 46 1 45 47
M  V30 47 1 45 48
M  V30 48 1 45 49 CFG=3
M  V30 49 1 47 50
M  V30 50 1 48 51
M  V30 51 1 50 52
M  V30 52 1 50 53
M  V30 53 1 50 54
M  V30 54 1 52 55 CFG=3
M  V30 55 1 56 55 CFG=3
M  V30 56 1 56 57
M  V30 57 1 56 58
M  V30 58 1 57 59
M  V30 59 1 58 60 CFG=1
M  V30 60 1 58 61
M  V30 61 1 59 62
M  V30 62 1 59 63 CFG=3
M  V30 63 1 64 60 CFG=3
M  V30 64 1 61 65 CFG=3
M  V30 65 1 62 66 CFG=1
M  V30 66 1 63 67
M  V30 67 1 64 68
M  V30 68 1 64 69
M  V30 69 1 68 70
M  V30 70 1 69 71 CFG=1
M  V30 71 1 69 72
M  V30 72 1 70 73
M  V30 73 1 70 74 CFG=3
M  V30 74 1 72 75 CFG=3
M  V30 75 1 73 76 CFG=1
M  V30 76 1 74 77
M  V30 77 1 6 10
M  V30 78 1 23 25
M  V30 79 1 29 35
M  V30 80 1 38 33 CFG=3
M  V30 81 1 47 46 CFG=3
M  V30 82 1 51 52
M  V30 83 1 61 62
M  V30 84 1 72 73
M  V30 END BOND
M  V30 BEGIN COLLECTION
M  V30 MDLV30/STERAC1 ATOMS=(30 2 3 5 6 8 10 13 17 18 22 23 24 27 29 30 35 38 45 47 52 56 58 59 61 62 64 69 70 72 73)
M  V30 END COLLECTION
M  V30 END CTAB
M  END
>  <SMILES>
[H][C@@]1(CC[C@]2(C)[C@]1([H])[C@H](O)C[C@]1([H])[C@@]3(C)CC[C@H](O[C@@H]4O[C@H](CO)[C@@H](O)[C@H](O)[C@H]4O[C@@H]4O[C@H](CO)[C@@H](O)[C@H](O)[C@H]4O)C(C)(C)[C@]3([H])CC[C@@]21C)C(C)(CCC=C(C)C)O[C@@H]1O[C@H](CO[C@@H]2O[C@H](CO)[C@@H](O)[C@H](O)[C@H]2O)[C@@H](O)[C@H](O)[C@H]1O

>  <INCHI_IDENTIFIER>
InChI=1S/C54H92O23/c1-23(2)10-9-14-54(8,77-48-44(69)40(65)37(62)29(74-48)22-70-46-42(67)38(63)34(59)26(19-55)71-46)24-11-16-53(7)33(24)25(58)18-31-51(5)15-13-32(50(3,4)30(51)12-17-52(31,53)6)75-49-45(41(66)36(61)28(21-57)73-49)76-47-43(68)39(64)35(60)27(20-56)72-47/h10,24-49,55-69H,9,11-22H2,1-8H3/t24-,25+,26+,27+,28+,29+,30-,31+,32-,33-,34+,35+,36+,37+,38-,39-,40-,41-,42+,43+,44+,45+,46+,47-,48-,49-,51-,52+,53+,54-/m0/s1

>  <INCHI_KEY>
GZYPWOGIYAIIPV-JBDTYSNRSA-N

>  <FORMULA>
C54H92O23

>  <MOLECULAR_WEIGHT>
1109.307

>  <DRUGBANK_ID>
DB06749

>  <DRUG_GROUPS>
nutraceutical

>  <GENERIC_NAME>
Ginsenoside Rb1

>  <SYNONYMS>
Arasaponin E1; GRb 1; Gynosaponin C; Gypenoside III; Panax saponin E; Pseudoginsenoside D; Sanchinoside E1

$$$$
Compound 16
Actelion Java MolfileCreator 2.0

  0  0  0  0  0  0              0 V3000
M  V30 BEGIN CTAB
M  V30 COUNTS 56 61 0 0 0
M  V30 BEGIN ATOM
M  V30 1 O 0.0 0.0 0.0 0
M  V30 2 C -0.4858 -1.3968 0.0 0 CFG=1
M  V30 3 C 1.4333 0.3279 0.0 0 CFG=1
M  V30 4 O -1.9677 -1.6762 0.0 0
M  V30 5 C 0.4858 -2.49 0.0 0 CFG=2
M  V30 6 C 2.405 -0.7652 0.0 0 CFG=2
M  V30 7 C 1.8705 1.7734 0.0 0
M  V30 8 C -2.4536 -3.0731 0.0 0 CFG=2
M  V30 9 O 0.0 -3.8869 0.0 0
M  V30 10 C 1.9191 -2.1621 0.0 0 CFG=2
M  V30 11 O 3.8383 -0.4372 0.0 0
M  V30 12 O 0.8502 2.9152 0.0 0
M  V30 13 C -2.9395 -4.4699 0.0 0 CFG=2
M  V30 14 C -1.0567 -3.5104 0.0 0
M  V30 15 C -3.899 -2.5872 0.0 0
M  V30 16 O 2.8909 -3.2553 0.0 0
M  V30 17 C -4.3728 -4.8951 0.0 0 CFG=2
M  V30 18 C -2.0892 -5.6482 0.0 0
M  V30 19 C -0.7773 -4.9437 0.0 0
M  V30 20 C -4.3971 -6.3648 0.0 0 CFG=1
M  V30 21 C -5.6968 -4.1298 0.0 0 CFG=2
M  V30 22 C -2.988 -6.8264 0.0 0
M  V30 23 C 0.6194 -5.3809 0.0 0
M  V30 24 C -5.7211 -7.0815 0.0 0 CFG=1
M  V30 25 C -3.9112 -7.7496 0.0 0
M  V30 26 O -5.7211 -2.6115 0.0 0
M  V30 27 C -7.0208 -4.8465 0.0 0
M  V30 28 C 0.8988 -6.8143 0.0 0
M  V30 29 C -7.045 -6.3162 0.0 0 CFG=2
M  V30 30 C -5.7211 -8.612 0.0 0
M  V30 31 C -4.7858 -8.199 0.0 0
M  V30 32 C 2.2957 -7.2515 0.0 0
M  V30 33 C -0.2429 -7.786 0.0 0
M  V30 34 C -8.4298 -7.045 0.0 0 CFG=2
M  V30 35 C -7.0815 -9.3651 0.0 0 CFG=1
M  V30 36 C -8.4662 -8.5755 0.0 0 CFG=1
M  V30 37 C -9.8388 -6.1705 0.0 0
M  V30 38 C -8.4419 -5.5267 0.0 0
M  V30 39 O -7.1058 -10.8348 0.0 0
M  V30 40 C -9.8874 -9.3772 0.0 0
M  V30 41 C -11.2843 -6.9236 0.0 0
M  V30 42 C -5.8304 -11.5515 0.0 0 CFG=2
M  V30 43 C -11.3207 -8.5391 0.0 0 CFG=2
M  V30 44 C -10.6526 -10.6526 0.0 0
M  V30 45 C -9.1707 -10.6405 0.0 0
M  V30 46 O -4.5671 -10.7862 0.0 0
M  V30 47 C -5.8547 -13.0212 0.0 0 CFG=2
M  V30 48 O -12.6447 -9.2558 0.0 0
M  V30 49 C -3.2917 -11.5029 0.0 0 CFG=1
M  V30 50 O -7.1665 -13.7379 0.0 0
M  V30 51 C -4.5793 -13.7379 0.0 0 CFG=2
M  V30 52 C -3.316 -12.9726 0.0 0 CFG=2
M  V30 53 C -2.0285 -10.7377 0.0 0
M  V30 54 O -4.6036 -15.2076 0.0 0
M  V30 55 O -2.0406 -13.6893 0.0 0
M  V30 56 O -0.753 -11.4543 0.0 0
M  V30 END ATOM
M  V30 BEGIN BOND
M  V30 1 1 1 2
M  V30 2 1 1 3
M  V30 3 1 2 4 CFG=3
M  V30 4 1 2 5
M  V30 5 1 3 6
M  V30 6 1 3 7 CFG=3
M  V30 7 1 8 4 CFG=1
M  V30 8 1 5 9 CFG=1
M  V30 9 1 5 10
M  V30 10 1 6 11 CFG=1
M  V30 11 1 7 12
M  V30 12 1 8 13
M  V30 13 1 8 14
M  V30 14 1 8 15
M  V30 15 1 10 16 CFG=3
M  V30 16 1 17 13 CFG=3
M  V30 17 1 13 18 CFG=1
M  V30 18 1 14 19
M  V30 19 1 17 20
M  V30 20 1 17 21
M  V30 21 1 18 22
M  V30 22 1 19 23
M  V30 23 1 20 24
M  V30 24 1 20 25 CFG=3
M  V30 25 1 21 26 CFG=1
M  V30 26 1 21 27
M  V30 27 2 23 28
M  V30 28 1 24 29
M  V30 29 1 24 30
M  V30 30 1 24 31 CFG=1
M  V30 31 1 28 32
M  V30 32 1 28 33
M  V30 33 1 29 34
M  V30 34 1 30 35
M  V30 35 1 34 36
M  V30 36 1 34 37
M  V30 37 1 34 38 CFG=1
M  V30 38 1 35 39 CFG=3
M  V30 39 1 36 40 CFG=1
M  V30 40 1 37 41
M  V30 41 1 42 39 CFG=3
M  V30 42 1 40 43
M  V30 43 1 40 44
M  V30 44 1 40 45
M  V30 45 1 42 46
M  V30 46 1 42 47
M  V30 47 1 43 48 CFG=1
M  V30 48 1 46 49
M  V30 49 1 47 50 CFG=1
M  V30 50 1 47 51
M  V30 51 1 49 52
M  V30 52 1 49 53 CFG=3
M  V30 53 1 51 54 CFG=3
M  V30 54 1 52 55 CFG=1
M  V30 55 1 53 56
M  V30 56 1 6 10
M  V30 57 1 20 22
M  V30 58 1 29 27 CFG=1
M  V30 59 1 35 36
M  V30 60 1 41 43
M  V30 61 1 51 52
M  V30 END BOND
M  V30 BEGIN COLLECTION
M  V30 MDLV30/STEABS ATOMS=(21 2 3 5 6 8 10 13 17 20 21 24 29 34 35 36 42 43 47 49 51 52)
M  V30 END COLLECTION
M  V30 END CTAB
M  END
>  <SMILES>
CC(C)=CCC[C@](C)(O[C@@H]1O[C@H](CO)[C@@H](O)[C@H](O)[C@H]1O)[C@H]1CC[C@]2(C)[C@@H]1[C@H](O)C[C@@H]1[C@@]3(C)CC[C@H](O)C(C)(C)[C@@H]3[C@H](C[C@@]21C)O[C@@H]1O[C@H](CO)[C@@H](O)[C@H](O)[C@H]1O

>  <INCHI_IDENTIFIER>
InChI=1S/C42H72O14/c1-20(2)10-9-13-42(8,56-37-34(52)32(50)30(48)25(19-44)55-37)21-11-15-40(6)28(21)22(45)16-26-39(5)14-12-27(46)38(3,4)35(39)23(17-41(26,40)7)53-36-33(51)31(49)29(47)24(18-43)54-36/h10,21-37,43-52H,9,11-19H2,1-8H3/t21-,22+,23-,24+,25+,26+,27-,28-,29+,30+,31-,32-,33+,34+,35-,36+,37-,39+,40+,41+,42-/m0/s1

>  <INCHI_KEY>
YURJSTAIMNSZAE-HHNZYBFYSA-N

>  <FORMULA>
C42H72O14

>  <MOLECULAR_WEIGHT>
801.024

>  <DRUGBANK_ID>
DB06750

>  <DRUG_GROUPS>
nutraceutical

>  <GENERIC_NAME>
Ginsenoside Rg1

>  <SYNONYMS>
Ginsenoside A2; Panaxoside A; Sanchinoside C1

$$$$
Compound 17
Actelion Java MolfileCreator 2.0

  0  0  0  0  0  0              0 V3000
M  V30 BEGIN CTAB
M  V30 COUNTS 29 28 0 0 0
M  V30 BEGIN ATOM
M  V30 1 O 0.0 0.0 0.0 0
M  V30 2 C -0.0234 -1.4776 0.0 0
M  V30 3 C -1.3486 -2.2047 0.0 0
M  V30 4 C -2.6855 -1.419 0.0 0
M  V30 5 C -4.0108 -2.1344 0.0 0
M  V30 6 C -5.336 -1.3603 0.0 0
M  V30 7 C -6.6612 -2.0874 0.0 0
M  V30 8 C -7.9864 -1.3134 0.0 0
M  V30 9 C -9.3116 -2.0288 0.0 0
M  V30 10 C -10.6368 -1.2665 0.0 0
M  V30 11 C -11.962 -1.9819 0.0 0
M  V30 12 C -13.2872 -1.2079 0.0 0
M  V30 13 C -14.6124 -1.9233 0.0 0
M  V30 14 C -15.9376 -1.1492 0.0 0
M  V30 15 C -17.2628 -1.8646 0.0 0
M  V30 16 C -17.2863 -3.3423 0.0 0
M  V30 17 C -16.008 -4.0694 0.0 0
M  V30 18 C -14.7297 -3.2837 0.0 0
M  V30 19 C -13.4514 -4.0108 0.0 0
M  V30 20 C -12.1731 -3.225 0.0 0
M  V30 21 C -10.8948 -3.9404 0.0 0
M  V30 22 C -9.6165 -3.1546 0.0 0
M  V30 23 C -8.3382 -3.87 0.0 0
M  V30 24 C -7.0599 -3.0843 0.0 0
M  V30 25 C -5.7816 -3.7997 0.0 0
M  V30 26 C -4.5033 -3.0139 0.0 0
M  V30 27 C -3.225 -3.7293 0.0 0
M  V30 28 C -1.9467 -2.9436 0.0 0
M  V30 29 C -0.6567 -3.6472 0.0 0
M  V30 END ATOM
M  V30 BEGIN BOND
M  V30 1 1 1 2
M  V30 2 1 2 3
M  V30 3 1 3 4
M  V30 4 1 4 5
M  V30 5 1 5 6
M  V30 6 1 6 7
M  V30 7 1 7 8
M  V30 8 1 8 9
M  V30 9 1 9 10
M  V30 10 1 10 11
M  V30 11 1 11 12
M  V30 12 1 12 13
M  V30 13 1 13 14
M  V30 14 1 14 15
M  V30 15 1 15 16
M  V30 16 1 16 17
M  V30 17 1 17 18
M  V30 18 1 18 19
M  V30 19 1 19 20
M  V30 20 1 20 21
M  V30 21 1 21 22
M  V30 22 1 22 23
M  V30 23 1 23 24
M  V30 24 1 24 25
M  V30 25 1 25 26
M  V30 26 1 26 27
M  V30 27 1 27 28
M  V30 28 1 28 29
M  V30 END BOND
M  V30 END CTAB
M  END
>  <SMILES>
CCCCCCCCCCCCCCCCCCCCCCCCCCCCO

>  <INCHI_IDENTIFIER>
InChI=1S/C28H58O/c1-2-3-4-5-6-7-8-9-10-11-12-13-14-15-16-17-18-19-20-21-22-23-24-25-26-27-28-29/h29H,2-28H2,1H3

>  <INCHI_KEY>
CNNRPFQICPFDPO-UHFFFAOYSA-N

>  <FORMULA>
C28H58O

>  <MOLECULAR_WEIGHT>
410.7595

>  <DRUGBANK_ID>
DB11220

>  <DRUG_GROUPS>
nutraceutical

>  <GENERIC_NAME>
Octacosanol

>  <SYNONYMS>
1-Octacosanol; cluytyl alcohol; montanyl alcohol; n-octacosanol; Octacosanol; Octacosyl alcohol

$$$$
Compound 18
Actelion Java MolfileCreator 2.0

  0  0  0  0  0  0              0 V3000
M  V30 BEGIN CTAB
M  V30 COUNTS 13 12 0 0 0
M  V30 BEGIN ATOM
M  V30 1 P 0.0 0.0 0.0 0
M  V30 2 O -0.0239 -1.4831 0.0 0
M  V30 3 O -1.3276 0.7774 0.0 0
M  V30 4 O -1.3276 -0.7415 0.0 0
M  V30 5 N 1.2797 0.7774 0.0 0
M  V30 6 C 2.5595 0.0478 0.0 0
M  V30 7 N 2.5356 -1.4352 0.0 0
M  V30 8 N 3.8393 0.8252 0.0 0
M  V30 9 C 5.1191 0.0956 0.0 0
M  V30 10 C 3.8154 2.3562 0.0 0
M  V30 11 C 6.3989 0.8731 0.0 0
M  V30 12 O 6.375 2.4041 0.0 0
M  V30 13 O 7.6787 0.1435 0.0 0
M  V30 END ATOM
M  V30 BEGIN BOND
M  V30 1 2 1 2
M  V30 2 1 1 3
M  V30 3 1 1 4
M  V30 4 1 1 5
M  V30 5 1 5 6
M  V30 6 2 6 7
M  V30 7 1 6 8
M  V30 8 1 8 9
M  V30 9 1 8 10
M  V30 10 1 9 11
M  V30 11 2 11 12
M  V30 12 1 11 13
M  V30 END BOND
M  V30 END CTAB
M  END
>  <SMILES>
CN(CC(O)=O)C(=N)NP(O)(O)=O

>  <INCHI_IDENTIFIER>
InChI=1S/C4H10N3O5P/c1-7(2-3(8)9)4(5)6-13(10,11)12/h2H2,1H3,(H,8,9)(H4,5,6,10,11,12)

>  <INCHI_KEY>
DRBBFCLWYRJSJZ-UHFFFAOYSA-N

>  <FORMULA>
C4H10N3O5P

>  <MOLECULAR_WEIGHT>
211.1131

>  <DRUGBANK_ID>
DB13191

>  <DRUG_GROUPS>
nutraceutical

>  <GENERIC_NAME>
Phosphocreatine

>  <SYNONYMS>
Creatine phosphate; Creatine phosphic acid; Creatine-P; Fosfocreatine; N-(N-phosphonoamido)sarcosine; N-(Phosphonoamidino)sarcosine; N-phosphocreatine; N-Phosphorylcreatine; phosphorylcreatine

$$$$
Compound 19
Actelion Java MolfileCreator 2.0

  0  0  0  0  0  0              0 V3000
M  V30 BEGIN CTAB
M  V30 COUNTS 21 20 0 0 0
M  V30 BEGIN ATOM
M  V30 1 O 0.0 0.0 0.0 0
M  V30 2 C -0.0235 -1.4859 0.0 0
M  V30 3 N 1.2618 -2.2053 0.0 0
M  V30 4 C -1.3562 -2.2053 0.0 0
M  V30 5 C 2.5473 -1.4269 0.0 0
M  V30 6 C -2.6888 -1.4269 0.0 0
M  V30 7 C 3.8328 -2.1463 0.0 0
M  V30 8 C -4.0215 -2.1463 0.0 0
M  V30 9 O 5.1182 -1.3798 0.0 0
M  V30 10 C -5.3541 -1.3798 0.0 0
M  V30 11 C -6.6867 -2.0991 0.0 0
M  V30 12 C -8.0194 -1.3208 0.0 0
M  V30 13 C -9.352 -2.0402 0.0 0
M  V30 14 C -9.3756 -3.5261 0.0 0
M  V30 15 C -8.0901 -4.2455 0.0 0
M  V30 16 C -6.8047 -3.4672 0.0 0
M  V30 17 C -5.5192 -4.1866 0.0 0
M  V30 18 C -4.2337 -3.4082 0.0 0
M  V30 19 C -2.9483 -4.1276 0.0 0
M  V30 20 C -1.6628 -3.3492 0.0 0
M  V30 21 C -0.3773 -4.0686 0.0 0
M  V30 END ATOM
M  V30 BEGIN BOND
M  V30 1 2 1 2
M  V30 2 1 2 3
M  V30 3 1 2 4
M  V30 4 1 3 5
M  V30 5 1 4 6
M  V30 6 1 5 7
M  V30 7 1 6 8
M  V30 8 1 7 9
M  V30 9 1 8 10
M  V30 10 1 10 11
M  V30 11 1 11 12
M  V30 12 1 12 13
M  V30 13 1 13 14
M  V30 14 1 14 15
M  V30 15 1 15 16
M  V30 16 1 16 17
M  V30 17 1 17 18
M  V30 18 1 18 19
M  V30 19 1 19 20
M  V30 20 1 20 21
M  V30 END BOND
M  V30 END CTAB
M  END
>  <SMILES>
CCCCCCCCCCCCCCCC(=O)NCCO

>  <INCHI_IDENTIFIER>
InChI=1S/C18H37NO2/c1-2-3-4-5-6-7-8-9-10-11-12-13-14-15-18(21)19-16-17-20/h20H,2-17H2,1H3,(H,19,21)

>  <INCHI_KEY>
HXYVTAGFYLMHSO-UHFFFAOYSA-N

>  <FORMULA>
C18H37NO2

>  <MOLECULAR_WEIGHT>
299.4919

>  <DRUGBANK_ID>
DB14043

>  <DRUG_GROUPS>
experimental; nutraceutical

>  <GENERIC_NAME>
Palmidrol

>  <SYNONYMS>
Hydroxyethylpalmitamide; Monoethanolamine palmitic acid amide; N-(2-Hydroxyethyl)palmitamide; N-hexadecanoylethanolamine; N-palmitoylethanolamine; Palmidrol; palmidrolum; Palmitamide MEA; Palmitic acid monoethanolamide; Palmitinsaeure-beta-hydroxyethylamid; Palmitoyl ethanolamide; Palmitoyl-EA; Palmitoylethanolamide

$$$$
Compound 20
Actelion Java MolfileCreator 2.0

  0  0  0  0  0  0              0 V3000
M  V30 BEGIN CTAB
M  V30 COUNTS 17 14 0 0 0
M  V30 BEGIN ATOM
M  V30 1 Mg 0.0 0.0 0.0 0 CHG=2
M  V30 2 O 2.4077 3.2746 0.0 0
M  V30 3 C 2.3837 1.7817 0.0 0
M  V30 4 O 1.0473 1.0473 0.0 0 CHG=-1
M  V30 5 C 3.6718 1.0473 0.0 0
M  V30 6 C 4.96 1.8299 0.0 0
M  V30 7 C 6.2482 1.0955 0.0 0
M  V30 8 O 6.2241 -0.3972 0.0 0
M  V30 9 C 7.5364 1.878 0.0 0
M  V30 10 O 10.9795 0.8668 0.0 0
M  V30 11 C 12.2677 1.6373 0.0 0
M  V30 12 O 12.2436 3.1782 0.0 0 CHG=-1
M  V30 13 C 13.5558 0.9029 0.0 0
M  V30 14 C 14.844 1.6854 0.0 0
M  V30 15 C 16.1322 0.951 0.0 0
M  V30 16 O 16.1081 -0.5417 0.0 0
M  V30 17 C 17.4204 1.7215 0.0 0
M  V30 END ATOM
M  V30 BEGIN BOND
M  V30 1 2 2 3
M  V30 2 1 3 4
M  V30 3 1 3 5
M  V30 4 1 5 6
M  V30 5 1 6 7
M  V30 6 2 7 8
M  V30 7 1 7 9
M  V30 8 2 10 11
M  V30 9 1 11 12
M  V30 10 1 11 13
M  V30 11 1 13 14
M  V30 12 1 14 15
M  V30 13 2 15 16
M  V30 14 1 15 17
M  V30 END BOND
M  V30 END CTAB
M  END
>  <SMILES>
[Mg++].CC(=O)CCC([O-])=O.CC(=O)CCC([O-])=O

>  <INCHI_IDENTIFIER>
InChI=1S/2C5H8O3.Mg/c2*1-4(6)2-3-5(7)8;/h2*2-3H2,1H3,(H,7,8);/q;;+2/p-2

>  <INCHI_KEY>
RECCGACJWKEPOU-UHFFFAOYSA-L

>  <FORMULA>
C10H14MgO6

>  <MOLECULAR_WEIGHT>
254.521

>  <DRUGBANK_ID>
DB14514

>  <DRUG_GROUPS>
nutraceutical

>  <GENERIC_NAME>
Magnesium levulinate

>  <SYNONYMS>
Magnesium diasporal

$$$$
Compound 21
Actelion Java MolfileCreator 2.0

  0  0  0  0  0  0              0 V3000
M  V30 BEGIN CTAB
M  V30 COUNTS 13 10 0 0 0
M  V30 BEGIN ATOM
M  V30 1 Mg 0.0 0.0 0.0 0 CHG=2
M  V30 2 O 3.6065 -3.8839 0.0 0
M  V30 3 C 2.1269 -4.3347 0.0 0
M  V30 4 O 1.7223 -5.7912 0.0 0 CHG=-1
M  V30 5 C 0.9594 -3.2944 0.0 0
M  V30 6 O 0.9363 -1.8495 0.0 0
M  V30 7 C -0.3005 -3.9764 0.0 0
M  V30 8 O 6.6582 -0.0924 0.0 0
M  V30 9 C 5.1786 -0.5432 0.0 0
M  V30 10 O 4.774 -1.9997 0.0 0 CHG=-1
M  V30 11 C 4.0111 0.497 0.0 0
M  V30 12 O 3.988 1.9419 0.0 0
M  V30 13 C 2.7511 -0.1849 0.0 0
M  V30 END ATOM
M  V30 BEGIN BOND
M  V30 1 2 2 3
M  V30 2 1 3 4
M  V30 3 1 3 5
M  V30 4 1 5 6
M  V30 5 1 5 7
M  V30 6 2 8 9
M  V30 7 1 9 10
M  V30 8 1 9 11
M  V30 9 1 11 12
M  V30 10 1 11 13
M  V30 END BOND
M  V30 END CTAB
M  END
>  <SMILES>
[Mg++].CC(O)C([O-])=O.CC(O)C([O-])=O

>  <INCHI_IDENTIFIER>
InChI=1S/2C3H6O3.Mg/c2*1-2(4)3(5)6;/h2*2,4H,1H3,(H,5,6);/q;;+2/p-2

>  <INCHI_KEY>
OVGXLJDWSLQDRT-UHFFFAOYSA-L

>  <FORMULA>
C6H10MgO6

>  <MOLECULAR_WEIGHT>
202.445

>  <DRUGBANK_ID>
DB14515

>  <DRUG_GROUPS>
nutraceutical

>  <GENERIC_NAME>
Magnesium lactate

>  <SYNONYMS>
Magnesium DL-lactate; Magnesium lactate anhydrous; Magnesium lactate, anhydrous

$$$$
Compound 22
Actelion Java MolfileCreator 2.0

  0  0  0  0  0  0              0 V3000
M  V30 BEGIN CTAB
M  V30 COUNTS 20 22 0 0 0
M  V30 BEGIN ATOM
M  V30 1 O 0.0 0.0 0.0 0
M  V30 2 C -0.0134 -1.4434 0.0 0
M  V30 3 N -1.322 -2.1449 0.0 0
M  V30 4 C 1.2545 -2.1449 0.0 0
M  V30 5 C -1.349 -3.6153 0.0 0
M  V30 6 C 1.2276 -3.6153 0.0 0
M  V30 7 C 2.644 -1.6592 0.0 0
M  V30 8 N -0.0944 -4.3303 0.0 0
M  V30 9 N -2.725 -4.3303 0.0 0
M  V30 10 N 2.617 -4.0335 0.0 0
M  V30 11 C 3.4669 -2.8464 0.0 0
M  V30 12 C 3.0757 -0.2293 0.0 0
M  V30 13 N 4.735 0.3507 0.0 0
M  V30 14 C 6.4347 -0.3237 0.0 0 CFG=2
M  V30 15 C 6.8529 -1.7132 0.0 0
M  V30 16 C 7.5949 0.5665 0.0 0 CFG=2
M  V30 17 C 8.3099 -1.6862 0.0 0
M  V30 18 O 7.5679 2.0774 0.0 0
M  V30 19 C 8.7685 -0.2563 0.0 0 CFG=1
M  V30 20 O 10.1445 0.2293 0.0 0
M  V30 END ATOM
M  V30 BEGIN BOND
M  V30 1 2 1 2
M  V30 2 1 2 3
M  V30 3 1 2 4
M  V30 4 1 3 5
M  V30 5 2 4 6
M  V30 6 1 4 7
M  V30 7 2 5 8
M  V30 8 1 5 9
M  V30 9 1 6 10
M  V30 10 2 7 11
M  V30 11 1 7 12
M  V30 12 1 12 13
M  V30 13 1 14 13 CFG=1
M  V30 14 1 14 15
M  V30 15 1 14 16
M  V30 16 2 15 17
M  V30 17 1 16 18 CFG=3
M  V30 18 1 16 19
M  V30 19 1 19 20 CFG=3
M  V30 20 1 6 8
M  V30 21 1 10 11
M  V30 22 1 17 19
M  V30 END BOND
M  V30 BEGIN COLLECTION
M  V30 MDLV30/STERAC1 ATOMS=(3 14 16 19)
M  V30 END COLLECTION
M  V30 END CTAB
M  END
>  <SMILES>
NC1=NC2=C(C(CN[C@H]3C=C[C@H](O)[C@@H]3O)=CN2)C(=O)N1

>  <INCHI_IDENTIFIER>
InChI=1S/C12H15N5O3/c13-12-16-10-8(11(20)17-12)5(4-15-10)3-14-6-1-2-7(18)9(6)19/h1-2,4,6-7,9,14,18-19H,3H2,(H4,13,15,16,17,20)/t6-,7-,9+/m0/s1

>  <INCHI_KEY>
WYROLENTHWJFLR-ACLDMZEESA-N

>  <FORMULA>
C12H15N5O3

>  <MOLECULAR_WEIGHT>
277.2792

>  <DRUGBANK_ID>
DB14732

>  <DRUG_GROUPS>
experimental; nutraceutical

>  <GENERIC_NAME>
Queuine

>  <SYNONYMS>
7-(3,4-trans-4,5-cis-dihydroxy-1-cyclopenten-3-ylaminomethyl)-7-deazaguanine; Base Q; Q Base

$$$$
